/*---------------------------------------------------------------------------*\
| =========                 |                                                 |
| \\      /  F ield         | OpenFOAM: The Open Source CFD Toolbox           |
|  \\    /   O peration     | Version:  5.x                                   |
|   \\  /    A nd           | Web:      www.OpenFOAM.org                      |
|    \\/     M anipulation  |                                                 |
\*---------------------------------------------------------------------------*/
Build  : 5.x-197d9d3bf20a
Exec   : sonicFoam -parallel
Date   : Mar 13 2018
Time   : 17:52:22
Host   : "compute50"
PID    : 7059
I/O    : uncollated
Case   : /home/sandor/OpenFOAM/ASZO/cfd3/SpaceCapsule/case
nProcs : 4
Slaves : 
3
(
"compute50.7060"
"compute50.7061"
"compute50.7062"
)

Pstream initialized with:
    floatTransfer      : 0
    nProcsSimpleSum    : 0
    commsType          : nonBlocking
    polling iterations : 0
sigFpe : Enabling floating point exception trapping (FOAM_SIGFPE).
fileModificationChecking : Monitoring run-time modified files using timeStampMaster (fileModificationSkew 10)
allowSystemOperations : Allowing user-supplied system call operations

// * * * * * * * * * * * * * * * * * * * * * * * * * * * * * * * * * * * * * //
Create time

Create mesh for time = 0


PIMPLE: Operating solver in PISO mode

Reading thermophysical properties

Selecting thermodynamics package 
{
    type            hePsiThermo;
    mixture         pureMixture;
    transport       const;
    thermo          hConst;
    equationOfState perfectGas;
    specie          specie;
    energy          sensibleInternalEnergy;
}

Reading field U

Reading/calculating face flux field phi

Creating turbulence model

Selecting turbulence model type RAS
Selecting RAS turbulence model kEpsilon
RAS
{
    RASModel        kEpsilon;
    turbulence      on;
    printCoeffs     on;
    Cmu             0.09;
    C1              1.44;
    C2              1.92;
    C3              0;
    sigmak          1;
    sigmaEps        1.3;
}

Creating field kinetic energy K

No MRF models present

No finite volume options present


Starting time loop

Time = 3e-07

Courant Number mean: 0.00786002 max: 0.18168
diagonal:  Solving for rho, Initial residual = 0, Final residual = 0, No Iterations 0
PIMPLE: iteration 1
DILUPBiCG:  Solving for Ux, Initial residual = 1, Final residual = 1.06357e-10, No Iterations 8
DILUPBiCG:  Solving for Uy, Initial residual = 1, Final residual = 1.03295e-10, No Iterations 8
DILUPBiCG:  Solving for Uz, Initial residual = 0.999999, Final residual = 2.35538e-10, No Iterations 8
DILUPBiCG:  Solving for e, Initial residual = 1, Final residual = 6.13356e-10, No Iterations 8
DILUPBiCG:  Solving for p, Initial residual = 1, Final residual = 4.01017e-13, No Iterations 5
DILUPBiCG:  Solving for p, Initial residual = 2.03529e-05, Final residual = 5.62865e-15, No Iterations 4
DILUPBiCG:  Solving for p, Initial residual = 3.81758e-09, Final residual = 2.58481e-14, No Iterations 2
diagonal:  Solving for rho, Initial residual = 0, Final residual = 0, No Iterations 0
time step continuity errors : sum local = 1.18995e-16, global = 2.25291e-17, cumulative = 2.25291e-17
DILUPBiCG:  Solving for p, Initial residual = 4.58111e-05, Final residual = 1.32487e-14, No Iterations 4
DILUPBiCG:  Solving for p, Initial residual = 7.84703e-09, Final residual = 5.65335e-14, No Iterations 2
DILUPBiCG:  Solving for p, Initial residual = 5.97993e-12, Final residual = 6.41723e-14, No Iterations 1
diagonal:  Solving for rho, Initial residual = 0, Final residual = 0, No Iterations 0
time step continuity errors : sum local = 1.19178e-16, global = 2.84304e-17, cumulative = 5.09595e-17
DILUPBiCG:  Solving for p, Initial residual = 9.87575e-06, Final residual = 1.32385e-13, No Iterations 3
DILUPBiCG:  Solving for p, Initial residual = 1.23312e-09, Final residual = 1.22338e-14, No Iterations 2
DILUPBiCG:  Solving for p, Initial residual = 1.69715e-12, Final residual = 6.13245e-15, No Iterations 1
diagonal:  Solving for rho, Initial residual = 0, Final residual = 0, No Iterations 0
time step continuity errors : sum local = 1.18592e-16, global = 2.27615e-17, cumulative = 7.37211e-17
DILUPBiCG:  Solving for epsilon, Initial residual = 0.000331433, Final residual = 1.89589e-11, No Iterations 5
DILUPBiCG:  Solving for k, Initial residual = 1, Final residual = 3.79402e-11, No Iterations 8
ExecutionTime = 0.03 s  ClockTime = 0 s

Time = 6e-07

Courant Number mean: 0.00785987 max: 0.18168
diagonal:  Solving for rho, Initial residual = 0, Final residual = 0, No Iterations 0
PIMPLE: iteration 1
DILUPBiCG:  Solving for Ux, Initial residual = 0.00265596, Final residual = 2.04766e-10, No Iterations 5
DILUPBiCG:  Solving for Uy, Initial residual = 0.00465442, Final residual = 1.50211e-10, No Iterations 5
DILUPBiCG:  Solving for Uz, Initial residual = 0.00325895, Final residual = 9.39162e-11, No Iterations 6
DILUPBiCG:  Solving for e, Initial residual = 0.013825, Final residual = 9.51389e-10, No Iterations 5
DILUPBiCG:  Solving for p, Initial residual = 0.160785, Final residual = 3.96572e-16, No Iterations 6
DILUPBiCG:  Solving for p, Initial residual = 1.50413e-06, Final residual = 1.56797e-13, No Iterations 3
DILUPBiCG:  Solving for p, Initial residual = 4.55582e-10, Final residual = 3.22643e-14, No Iterations 2
diagonal:  Solving for rho, Initial residual = 0, Final residual = 0, No Iterations 0
time step continuity errors : sum local = 1.3755e-16, global = -7.70427e-18, cumulative = 6.60168e-17
DILUPBiCG:  Solving for p, Initial residual = 3.1281e-06, Final residual = 2.38394e-15, No Iterations 4
DILUPBiCG:  Solving for p, Initial residual = 7.35086e-10, Final residual = 1.15429e-13, No Iterations 2
DILUPBiCG:  Solving for p, Initial residual = 7.66795e-13, Final residual = 7.66795e-13, No Iterations 0
diagonal:  Solving for rho, Initial residual = 0, Final residual = 0, No Iterations 0
time step continuity errors : sum local = 3.55277e-16, global = -3.22885e-17, cumulative = 3.37283e-17
DILUPBiCG:  Solving for p, Initial residual = 3.88981e-08, Final residual = 8.043e-15, No Iterations 3
DILUPBiCG:  Solving for p, Initial residual = 7.73657e-12, Final residual = 6.56574e-14, No Iterations 1
DILUPBiCG:  Solving for p, Initial residual = 1.40482e-13, Final residual = 1.40482e-13, No Iterations 0
diagonal:  Solving for rho, Initial residual = 0, Final residual = 0, No Iterations 0
time step continuity errors : sum local = 1.47841e-16, global = -1.60039e-18, cumulative = 3.21279e-17
DILUPBiCG:  Solving for epsilon, Initial residual = 5.58798e-05, Final residual = 7.69027e-11, No Iterations 3
DILUPBiCG:  Solving for k, Initial residual = 0.00320753, Final residual = 8.57123e-12, No Iterations 6
ExecutionTime = 0.05 s  ClockTime = 1 s

Time = 9e-07

Courant Number mean: 0.00785967 max: 0.18168
diagonal:  Solving for rho, Initial residual = 0, Final residual = 0, No Iterations 0
PIMPLE: iteration 1
DILUPBiCG:  Solving for Ux, Initial residual = 0.000837496, Final residual = 9.83017e-11, No Iterations 5
DILUPBiCG:  Solving for Uy, Initial residual = 0.00386922, Final residual = 6.04078e-10, No Iterations 4
DILUPBiCG:  Solving for Uz, Initial residual = 0.00200774, Final residual = 9.47299e-10, No Iterations 5
DILUPBiCG:  Solving for e, Initial residual = 0.0134213, Final residual = 9.68248e-10, No Iterations 5
DILUPBiCG:  Solving for p, Initial residual = 0.0102938, Final residual = 2.00653e-14, No Iterations 5
DILUPBiCG:  Solving for p, Initial residual = 5.86413e-07, Final residual = 6.66195e-14, No Iterations 3
DILUPBiCG:  Solving for p, Initial residual = 1.86204e-10, Final residual = 7.07822e-13, No Iterations 1
diagonal:  Solving for rho, Initial residual = 0, Final residual = 0, No Iterations 0
time step continuity errors : sum local = 6.84727e-16, global = -1.43962e-16, cumulative = -1.11835e-16
DILUPBiCG:  Solving for p, Initial residual = 1.35304e-06, Final residual = 1.91639e-13, No Iterations 3
DILUPBiCG:  Solving for p, Initial residual = 2.87018e-10, Final residual = 7.97932e-15, No Iterations 2
DILUPBiCG:  Solving for p, Initial residual = 3.05229e-13, Final residual = 3.05229e-13, No Iterations 0
diagonal:  Solving for rho, Initial residual = 0, Final residual = 0, No Iterations 0
time step continuity errors : sum local = 3.48799e-16, global = -6.7088e-18, cumulative = -1.18543e-16
DILUPBiCG:  Solving for p, Initial residual = 1.45352e-08, Final residual = 9.04921e-13, No Iterations 2
DILUPBiCG:  Solving for p, Initial residual = 2.95998e-12, Final residual = 1.09164e-14, No Iterations 1
DILUPBiCG:  Solving for p, Initial residual = 4.03572e-14, Final residual = 4.03572e-14, No Iterations 0
diagonal:  Solving for rho, Initial residual = 0, Final residual = 0, No Iterations 0
time step continuity errors : sum local = 1.42214e-16, global = -4.97393e-18, cumulative = -1.23517e-16
DILUPBiCG:  Solving for epsilon, Initial residual = 4.69339e-05, Final residual = 6.98789e-11, No Iterations 3
DILUPBiCG:  Solving for k, Initial residual = 0.00329882, Final residual = 5.67022e-11, No Iterations 5
ExecutionTime = 0.07 s  ClockTime = 1 s

Time = 1.2e-06

Courant Number mean: 0.00785945 max: 0.18168
diagonal:  Solving for rho, Initial residual = 0, Final residual = 0, No Iterations 0
PIMPLE: iteration 1
DILUPBiCG:  Solving for Ux, Initial residual = 0.000485501, Final residual = 3.13146e-10, No Iterations 4
DILUPBiCG:  Solving for Uy, Initial residual = 0.00399238, Final residual = 7.85882e-10, No Iterations 4
DILUPBiCG:  Solving for Uz, Initial residual = 0.00151182, Final residual = 7.54224e-10, No Iterations 5
DILUPBiCG:  Solving for e, Initial residual = 0.00416482, Final residual = 4.44453e-10, No Iterations 5
DILUPBiCG:  Solving for p, Initial residual = 0.00440384, Final residual = 6.28904e-15, No Iterations 5
DILUPBiCG:  Solving for p, Initial residual = 3.01023e-07, Final residual = 3.24215e-14, No Iterations 3
DILUPBiCG:  Solving for p, Initial residual = 9.71505e-11, Final residual = 2.46903e-13, No Iterations 1
diagonal:  Solving for rho, Initial residual = 0, Final residual = 0, No Iterations 0
time step continuity errors : sum local = 4.67703e-16, global = -5.35719e-17, cumulative = -1.77089e-16
DILUPBiCG:  Solving for p, Initial residual = 7.52292e-07, Final residual = 1.22641e-13, No Iterations 3
DILUPBiCG:  Solving for p, Initial residual = 1.64288e-10, Final residual = 8.73981e-13, No Iterations 1
DILUPBiCG:  Solving for p, Initial residual = 8.73995e-13, Final residual = 8.73995e-13, No Iterations 0
diagonal:  Solving for rho, Initial residual = 0, Final residual = 0, No Iterations 0
time step continuity errors : sum local = 1.28893e-15, global = 2.99056e-16, cumulative = 1.21967e-16
DILUPBiCG:  Solving for p, Initial residual = 8.19549e-09, Final residual = 7.82623e-13, No Iterations 2
DILUPBiCG:  Solving for p, Initial residual = 1.97452e-12, Final residual = 8.99691e-15, No Iterations 1
DILUPBiCG:  Solving for p, Initial residual = 2.45418e-14, Final residual = 2.45418e-14, No Iterations 0
diagonal:  Solving for rho, Initial residual = 0, Final residual = 0, No Iterations 0
time step continuity errors : sum local = 1.4789e-16, global = -1.45696e-17, cumulative = 1.07397e-16
DILUPBiCG:  Solving for epsilon, Initial residual = 4.04718e-05, Final residual = 6.42093e-11, No Iterations 3
DILUPBiCG:  Solving for k, Initial residual = 0.00345312, Final residual = 3.06129e-11, No Iterations 5
ExecutionTime = 0.1 s  ClockTime = 1 s

Time = 1.5e-06

Courant Number mean: 0.00785928 max: 0.18168
diagonal:  Solving for rho, Initial residual = 0, Final residual = 0, No Iterations 0
PIMPLE: iteration 1
DILUPBiCG:  Solving for Ux, Initial residual = 0.000366718, Final residual = 9.93271e-11, No Iterations 4
DILUPBiCG:  Solving for Uy, Initial residual = 0.00518751, Final residual = 4.52867e-10, No Iterations 5
DILUPBiCG:  Solving for Uz, Initial residual = 0.00121297, Final residual = 5.83625e-10, No Iterations 5
DILUPBiCG:  Solving for e, Initial residual = 0.00229967, Final residual = 8.29335e-10, No Iterations 5
DILUPBiCG:  Solving for p, Initial residual = 0.00256833, Final residual = 2.94342e-15, No Iterations 5
DILUPBiCG:  Solving for p, Initial residual = 1.94802e-07, Final residual = 1.95712e-14, No Iterations 3
DILUPBiCG:  Solving for p, Initial residual = 7.24047e-11, Final residual = 1.86245e-13, No Iterations 1
diagonal:  Solving for rho, Initial residual = 0, Final residual = 0, No Iterations 0
time step continuity errors : sum local = 4.9952e-16, global = 2.19506e-17, cumulative = 1.29348e-16
DILUPBiCG:  Solving for p, Initial residual = 4.33423e-07, Final residual = 5.80734e-14, No Iterations 3
DILUPBiCG:  Solving for p, Initial residual = 1.04508e-10, Final residual = 4.1845e-13, No Iterations 1
DILUPBiCG:  Solving for p, Initial residual = 3.85425e-13, Final residual = 3.85425e-13, No Iterations 0
diagonal:  Solving for rho, Initial residual = 0, Final residual = 0, No Iterations 0
time step continuity errors : sum local = 8.77194e-16, global = 1.06225e-16, cumulative = 2.35573e-16
DILUPBiCG:  Solving for p, Initial residual = 5.46674e-09, Final residual = 1.09617e-15, No Iterations 3
DILUPBiCG:  Solving for p, Initial residual = 9.6494e-13, Final residual = 9.6494e-13, No Iterations 0
DILUPBiCG:  Solving for p, Initial residual = 9.6494e-13, Final residual = 9.6494e-13, No Iterations 0
diagonal:  Solving for rho, Initial residual = 0, Final residual = 0, No Iterations 0
time step continuity errors : sum local = 2.04411e-15, global = -8.80732e-18, cumulative = 2.26766e-16
DILUPBiCG:  Solving for epsilon, Initial residual = 3.60292e-05, Final residual = 5.87156e-11, No Iterations 3
DILUPBiCG:  Solving for k, Initial residual = 0.0036518, Final residual = 2.91858e-11, No Iterations 5
ExecutionTime = 0.12 s  ClockTime = 1 s

Time = 1.8e-06

Courant Number mean: 0.00785914 max: 0.18168
diagonal:  Solving for rho, Initial residual = 0, Final residual = 0, No Iterations 0
PIMPLE: iteration 1
DILUPBiCG:  Solving for Ux, Initial residual = 0.000298743, Final residual = 6.73472e-11, No Iterations 4
DILUPBiCG:  Solving for Uy, Initial residual = 0.0100001, Final residual = 9.23855e-10, No Iterations 5
DILUPBiCG:  Solving for Uz, Initial residual = 0.00104185, Final residual = 5.97244e-10, No Iterations 5
DILUPBiCG:  Solving for e, Initial residual = 0.00153638, Final residual = 3.65088e-10, No Iterations 5
DILUPBiCG:  Solving for p, Initial residual = 0.00172047, Final residual = 1.60609e-15, No Iterations 5
DILUPBiCG:  Solving for p, Initial residual = 1.39705e-07, Final residual = 1.3385e-14, No Iterations 3
DILUPBiCG:  Solving for p, Initial residual = 4.65051e-11, Final residual = 1.11693e-13, No Iterations 1
diagonal:  Solving for rho, Initial residual = 0, Final residual = 0, No Iterations 0
time step continuity errors : sum local = 4.50064e-16, global = 7.64581e-17, cumulative = 3.03224e-16
DILUPBiCG:  Solving for p, Initial residual = 3.08729e-07, Final residual = 3.19968e-14, No Iterations 3
DILUPBiCG:  Solving for p, Initial residual = 7.78164e-11, Final residual = 3.30351e-13, No Iterations 1
DILUPBiCG:  Solving for p, Initial residual = 3.11852e-13, Final residual = 3.11852e-13, No Iterations 0
diagonal:  Solving for rho, Initial residual = 0, Final residual = 0, No Iterations 0
time step continuity errors : sum local = 9.79028e-16, global = 1.19851e-16, cumulative = 4.23075e-16
DILUPBiCG:  Solving for p, Initial residual = 3.94781e-09, Final residual = 7.93595e-16, No Iterations 3
DILUPBiCG:  Solving for p, Initial residual = 6.67879e-13, Final residual = 6.67879e-13, No Iterations 0
DILUPBiCG:  Solving for p, Initial residual = 6.67879e-13, Final residual = 6.67879e-13, No Iterations 0
diagonal:  Solving for rho, Initial residual = 0, Final residual = 0, No Iterations 0
time step continuity errors : sum local = 1.96484e-15, global = -1.58058e-17, cumulative = 4.07269e-16
DILUPBiCG:  Solving for epsilon, Initial residual = 3.27858e-05, Final residual = 5.37063e-11, No Iterations 3
DILUPBiCG:  Solving for k, Initial residual = 0.00389029, Final residual = 3.5007e-11, No Iterations 5
ExecutionTime = 0.14 s  ClockTime = 1 s

Time = 2.1e-06

Courant Number mean: 0.00785901 max: 0.18168
diagonal:  Solving for rho, Initial residual = 0, Final residual = 0, No Iterations 0
PIMPLE: iteration 1
DILUPBiCG:  Solving for Ux, Initial residual = 0.00025376, Final residual = 6.08767e-10, No Iterations 4
DILUPBiCG:  Solving for Uy, Initial residual = 0.0306085, Final residual = 3.48104e-11, No Iterations 6
DILUPBiCG:  Solving for Uz, Initial residual = 0.000914057, Final residual = 3.58312e-10, No Iterations 5
DILUPBiCG:  Solving for e, Initial residual = 0.00112327, Final residual = 1.27815e-10, No Iterations 5
DILUPBiCG:  Solving for p, Initial residual = 0.00125096, Final residual = 9.69352e-16, No Iterations 5
DILUPBiCG:  Solving for p, Initial residual = 1.08555e-07, Final residual = 8.51779e-15, No Iterations 3
DILUPBiCG:  Solving for p, Initial residual = 3.00015e-11, Final residual = 6.58261e-14, No Iterations 1
diagonal:  Solving for rho, Initial residual = 0, Final residual = 0, No Iterations 0
time step continuity errors : sum local = 3.8635e-16, global = 7.09247e-17, cumulative = 4.78194e-16
DILUPBiCG:  Solving for p, Initial residual = 2.46135e-07, Final residual = 2.34123e-14, No Iterations 3
DILUPBiCG:  Solving for p, Initial residual = 6.7215e-11, Final residual = 2.14102e-13, No Iterations 1
DILUPBiCG:  Solving for p, Initial residual = 2.21942e-13, Final residual = 2.21942e-13, No Iterations 0
diagonal:  Solving for rho, Initial residual = 0, Final residual = 0, No Iterations 0
time step continuity errors : sum local = 9.31693e-16, global = 1.86844e-16, cumulative = 6.65038e-16
DILUPBiCG:  Solving for p, Initial residual = 2.99667e-09, Final residual = 6.03361e-16, No Iterations 3
DILUPBiCG:  Solving for p, Initial residual = 5.09606e-13, Final residual = 5.09606e-13, No Iterations 0
DILUPBiCG:  Solving for p, Initial residual = 5.09606e-13, Final residual = 5.09606e-13, No Iterations 0
diagonal:  Solving for rho, Initial residual = 0, Final residual = 0, No Iterations 0
time step continuity errors : sum local = 1.97116e-15, global = -9.35786e-18, cumulative = 6.5568e-16
DILUPBiCG:  Solving for epsilon, Initial residual = 3.02146e-05, Final residual = 4.89002e-11, No Iterations 3
DILUPBiCG:  Solving for k, Initial residual = 0.0041673, Final residual = 5.45049e-11, No Iterations 5
ExecutionTime = 0.16 s  ClockTime = 1 s

Time = 2.4e-06

Courant Number mean: 0.00785889 max: 0.18168
diagonal:  Solving for rho, Initial residual = 0, Final residual = 0, No Iterations 0
PIMPLE: iteration 1
DILUPBiCG:  Solving for Ux, Initial residual = 0.000221627, Final residual = 1.21924e-10, No Iterations 4
DILUPBiCG:  Solving for Uy, Initial residual = 0.00688783, Final residual = 1.48432e-10, No Iterations 5
DILUPBiCG:  Solving for Uz, Initial residual = 0.000819963, Final residual = 9.97894e-10, No Iterations 4
DILUPBiCG:  Solving for e, Initial residual = 0.000868775, Final residual = 8.70992e-10, No Iterations 4
DILUPBiCG:  Solving for p, Initial residual = 0.000959598, Final residual = 5.63762e-13, No Iterations 4
DILUPBiCG:  Solving for p, Initial residual = 8.81182e-08, Final residual = 6.96848e-15, No Iterations 3
DILUPBiCG:  Solving for p, Initial residual = 2.88332e-11, Final residual = 6.60713e-14, No Iterations 1
diagonal:  Solving for rho, Initial residual = 0, Final residual = 0, No Iterations 0
time step continuity errors : sum local = 4.48405e-16, global = 8.88753e-17, cumulative = 7.44555e-16
DILUPBiCG:  Solving for p, Initial residual = 2.1601e-07, Final residual = 1.95347e-14, No Iterations 3
DILUPBiCG:  Solving for p, Initial residual = 6.27264e-11, Final residual = 1.68125e-13, No Iterations 1
DILUPBiCG:  Solving for p, Initial residual = 1.90517e-13, Final residual = 1.90517e-13, No Iterations 0
diagonal:  Solving for rho, Initial residual = 0, Final residual = 0, No Iterations 0
time step continuity errors : sum local = 9.91008e-16, global = 1.94814e-16, cumulative = 9.39369e-16
DILUPBiCG:  Solving for p, Initial residual = 2.35419e-09, Final residual = 4.70266e-16, No Iterations 3
DILUPBiCG:  Solving for p, Initial residual = 4.13426e-13, Final residual = 4.13426e-13, No Iterations 0
DILUPBiCG:  Solving for p, Initial residual = 4.13426e-13, Final residual = 4.13426e-13, No Iterations 0
diagonal:  Solving for rho, Initial residual = 0, Final residual = 0, No Iterations 0
time step continuity errors : sum local = 2.00984e-15, global = -1.18297e-17, cumulative = 9.27539e-16
DILUPBiCG:  Solving for epsilon, Initial residual = 2.80353e-05, Final residual = 4.44944e-11, No Iterations 3
DILUPBiCG:  Solving for k, Initial residual = 0.00447851, Final residual = 7.29557e-11, No Iterations 5
ExecutionTime = 0.18 s  ClockTime = 1 s

Time = 2.7e-06

Courant Number mean: 0.00785877 max: 0.18168
diagonal:  Solving for rho, Initial residual = 0, Final residual = 0, No Iterations 0
PIMPLE: iteration 1
DILUPBiCG:  Solving for Ux, Initial residual = 0.000197478, Final residual = 8.03969e-10, No Iterations 3
DILUPBiCG:  Solving for Uy, Initial residual = 0.00395408, Final residual = 9.54151e-10, No Iterations 4
DILUPBiCG:  Solving for Uz, Initial residual = 0.000775007, Final residual = 3.66484e-10, No Iterations 5
DILUPBiCG:  Solving for e, Initial residual = 0.000698827, Final residual = 8.13756e-10, No Iterations 4
DILUPBiCG:  Solving for p, Initial residual = 0.000764255, Final residual = 2.98282e-13, No Iterations 4
DILUPBiCG:  Solving for p, Initial residual = 7.3815e-08, Final residual = 5.95523e-15, No Iterations 3
DILUPBiCG:  Solving for p, Initial residual = 2.52447e-11, Final residual = 6.35409e-14, No Iterations 1
diagonal:  Solving for rho, Initial residual = 0, Final residual = 0, No Iterations 0
time step continuity errors : sum local = 5.06925e-16, global = 4.12925e-17, cumulative = 9.68832e-16
DILUPBiCG:  Solving for p, Initial residual = 2.01568e-07, Final residual = 1.45315e-14, No Iterations 3
DILUPBiCG:  Solving for p, Initial residual = 5.85358e-11, Final residual = 1.23803e-13, No Iterations 1
DILUPBiCG:  Solving for p, Initial residual = 1.61728e-13, Final residual = 1.61728e-13, No Iterations 0
diagonal:  Solving for rho, Initial residual = 0, Final residual = 0, No Iterations 0
time step continuity errors : sum local = 1.03525e-15, global = 2.18386e-16, cumulative = 1.18722e-15
DILUPBiCG:  Solving for p, Initial residual = 1.90224e-09, Final residual = 3.71239e-16, No Iterations 3
DILUPBiCG:  Solving for p, Initial residual = 3.40373e-13, Final residual = 3.40373e-13, No Iterations 0
DILUPBiCG:  Solving for p, Initial residual = 3.40373e-13, Final residual = 3.40373e-13, No Iterations 0
diagonal:  Solving for rho, Initial residual = 0, Final residual = 0, No Iterations 0
time step continuity errors : sum local = 2.02935e-15, global = 2.12135e-18, cumulative = 1.18934e-15
DILUPBiCG:  Solving for epsilon, Initial residual = 2.61058e-05, Final residual = 3.99985e-11, No Iterations 3
DILUPBiCG:  Solving for k, Initial residual = 0.00481353, Final residual = 9.07643e-11, No Iterations 5
ExecutionTime = 0.2 s  ClockTime = 1 s

Time = 3e-06

Courant Number mean: 0.00785865 max: 0.18168
diagonal:  Solving for rho, Initial residual = 0, Final residual = 0, No Iterations 0
PIMPLE: iteration 1
DILUPBiCG:  Solving for Ux, Initial residual = 0.000178554, Final residual = 7.88089e-10, No Iterations 3
DILUPBiCG:  Solving for Uy, Initial residual = 0.00280942, Final residual = 5.17202e-10, No Iterations 4
DILUPBiCG:  Solving for Uz, Initial residual = 0.000702982, Final residual = 1.92381e-10, No Iterations 5
DILUPBiCG:  Solving for e, Initial residual = 0.000579292, Final residual = 8.13763e-10, No Iterations 4
DILUPBiCG:  Solving for p, Initial residual = 0.000626005, Final residual = 1.79885e-13, No Iterations 4
DILUPBiCG:  Solving for p, Initial residual = 6.08958e-08, Final residual = 4.39152e-15, No Iterations 3
DILUPBiCG:  Solving for p, Initial residual = 1.81873e-11, Final residual = 3.63561e-14, No Iterations 1
diagonal:  Solving for rho, Initial residual = 0, Final residual = 0, No Iterations 0
time step continuity errors : sum local = 3.89405e-16, global = 9.91631e-17, cumulative = 1.2885e-15
DILUPBiCG:  Solving for p, Initial residual = 1.94403e-07, Final residual = 7.23649e-15, No Iterations 3
DILUPBiCG:  Solving for p, Initial residual = 5.62876e-11, Final residual = 9.07302e-14, No Iterations 1
DILUPBiCG:  Solving for p, Initial residual = 1.37378e-13, Final residual = 1.37378e-13, No Iterations 0
diagonal:  Solving for rho, Initial residual = 0, Final residual = 0, No Iterations 0
time step continuity errors : sum local = 1.04821e-15, global = 2.6952e-16, cumulative = 1.55802e-15
DILUPBiCG:  Solving for p, Initial residual = 1.59206e-09, Final residual = 2.98595e-16, No Iterations 3
DILUPBiCG:  Solving for p, Initial residual = 2.90433e-13, Final residual = 2.90433e-13, No Iterations 0
DILUPBiCG:  Solving for p, Initial residual = 2.90433e-13, Final residual = 2.90433e-13, No Iterations 0
diagonal:  Solving for rho, Initial residual = 0, Final residual = 0, No Iterations 0
time step continuity errors : sum local = 2.0851e-15, global = 3.26579e-18, cumulative = 1.56129e-15
DILUPBiCG:  Solving for epsilon, Initial residual = 2.4354e-05, Final residual = 3.5092e-11, No Iterations 3
DILUPBiCG:  Solving for k, Initial residual = 0.00515301, Final residual = 2.17559e-11, No Iterations 6
ExecutionTime = 0.22 s  ClockTime = 1 s

Time = 3.3e-06

Courant Number mean: 0.00785855 max: 0.18168
diagonal:  Solving for rho, Initial residual = 0, Final residual = 0, No Iterations 0
PIMPLE: iteration 1
DILUPBiCG:  Solving for Ux, Initial residual = 0.000163267, Final residual = 8.0202e-10, No Iterations 3
DILUPBiCG:  Solving for Uy, Initial residual = 0.00220174, Final residual = 4.3358e-10, No Iterations 4
DILUPBiCG:  Solving for Uz, Initial residual = 0.00063559, Final residual = 8.19103e-10, No Iterations 4
DILUPBiCG:  Solving for e, Initial residual = 0.000492399, Final residual = 8.33395e-10, No Iterations 4
DILUPBiCG:  Solving for p, Initial residual = 0.000524152, Final residual = 1.15227e-13, No Iterations 4
DILUPBiCG:  Solving for p, Initial residual = 5.19567e-08, Final residual = 3.32612e-15, No Iterations 3
DILUPBiCG:  Solving for p, Initial residual = 1.50261e-11, Final residual = 3.29294e-14, No Iterations 1
diagonal:  Solving for rho, Initial residual = 0, Final residual = 0, No Iterations 0
time step continuity errors : sum local = 4.0508e-16, global = -1.37675e-17, cumulative = 1.54752e-15
DILUPBiCG:  Solving for p, Initial residual = 1.91148e-07, Final residual = 1.22219e-13, No Iterations 3
DILUPBiCG:  Solving for p, Initial residual = 5.56416e-11, Final residual = 6.91632e-14, No Iterations 1
DILUPBiCG:  Solving for p, Initial residual = 1.19861e-13, Final residual = 1.19861e-13, No Iterations 0
diagonal:  Solving for rho, Initial residual = 0, Final residual = 0, No Iterations 0
time step continuity errors : sum local = 1.07157e-15, global = 2.78222e-16, cumulative = 1.82574e-15
DILUPBiCG:  Solving for p, Initial residual = 1.3667e-09, Final residual = 2.43905e-16, No Iterations 3
DILUPBiCG:  Solving for p, Initial residual = 2.61861e-13, Final residual = 2.61861e-13, No Iterations 0
DILUPBiCG:  Solving for p, Initial residual = 2.61861e-13, Final residual = 2.61861e-13, No Iterations 0
diagonal:  Solving for rho, Initial residual = 0, Final residual = 0, No Iterations 0
time step continuity errors : sum local = 2.20131e-15, global = -9.32219e-18, cumulative = 1.81642e-15
DILUPBiCG:  Solving for epsilon, Initial residual = 2.27554e-05, Final residual = 2.90514e-11, No Iterations 3
DILUPBiCG:  Solving for k, Initial residual = 0.00546591, Final residual = 2.35998e-11, No Iterations 6
ExecutionTime = 0.23 s  ClockTime = 1 s

Time = 3.6e-06

Courant Number mean: 0.00785844 max: 0.18168
diagonal:  Solving for rho, Initial residual = 0, Final residual = 0, No Iterations 0
PIMPLE: iteration 1
DILUPBiCG:  Solving for Ux, Initial residual = 0.000150653, Final residual = 8.13681e-10, No Iterations 3
DILUPBiCG:  Solving for Uy, Initial residual = 0.00182643, Final residual = 4.57194e-10, No Iterations 4
DILUPBiCG:  Solving for Uz, Initial residual = 0.000602872, Final residual = 1.98355e-10, No Iterations 5
DILUPBiCG:  Solving for e, Initial residual = 0.000426544, Final residual = 8.86626e-10, No Iterations 4
DILUPBiCG:  Solving for p, Initial residual = 0.000446552, Final residual = 7.84345e-14, No Iterations 4
DILUPBiCG:  Solving for p, Initial residual = 4.47363e-08, Final residual = 2.74631e-15, No Iterations 3
DILUPBiCG:  Solving for p, Initial residual = 1.27287e-11, Final residual = 2.51978e-14, No Iterations 1
diagonal:  Solving for rho, Initial residual = 0, Final residual = 0, No Iterations 0
time step continuity errors : sum local = 3.83042e-16, global = 1.43072e-17, cumulative = 1.83073e-15
DILUPBiCG:  Solving for p, Initial residual = 1.88993e-07, Final residual = 2.43744e-14, No Iterations 3
DILUPBiCG:  Solving for p, Initial residual = 5.5767e-11, Final residual = 6.31908e-14, No Iterations 1
DILUPBiCG:  Solving for p, Initial residual = 1.08646e-13, Final residual = 1.08646e-13, No Iterations 0
diagonal:  Solving for rho, Initial residual = 0, Final residual = 0, No Iterations 0
time step continuity errors : sum local = 1.13e-15, global = 3.12716e-16, cumulative = 2.14344e-15
DILUPBiCG:  Solving for p, Initial residual = 1.21097e-09, Final residual = 2.02756e-16, No Iterations 3
DILUPBiCG:  Solving for p, Initial residual = 2.32376e-13, Final residual = 2.32376e-13, No Iterations 0
DILUPBiCG:  Solving for p, Initial residual = 2.32376e-13, Final residual = 2.32376e-13, No Iterations 0
diagonal:  Solving for rho, Initial residual = 0, Final residual = 0, No Iterations 0
time step continuity errors : sum local = 2.26654e-15, global = -6.42191e-18, cumulative = 2.13702e-15
DILUPBiCG:  Solving for epsilon, Initial residual = 2.12897e-05, Final residual = 2.07616e-11, No Iterations 3
DILUPBiCG:  Solving for k, Initial residual = 0.00570809, Final residual = 2.7634e-11, No Iterations 6
ExecutionTime = 0.25 s  ClockTime = 1 s

Time = 3.9e-06

Courant Number mean: 0.00785834 max: 0.18168
diagonal:  Solving for rho, Initial residual = 0, Final residual = 0, No Iterations 0
PIMPLE: iteration 1
DILUPBiCG:  Solving for Ux, Initial residual = 0.000140046, Final residual = 7.93763e-10, No Iterations 3
DILUPBiCG:  Solving for Uy, Initial residual = 0.00157364, Final residual = 4.57099e-10, No Iterations 4
DILUPBiCG:  Solving for Uz, Initial residual = 0.000577466, Final residual = 2.09342e-10, No Iterations 5
DILUPBiCG:  Solving for e, Initial residual = 0.000374927, Final residual = 9.82667e-11, No Iterations 5
DILUPBiCG:  Solving for p, Initial residual = 0.000385875, Final residual = 6.39942e-14, No Iterations 4
DILUPBiCG:  Solving for p, Initial residual = 3.93629e-08, Final residual = 2.21378e-15, No Iterations 3
DILUPBiCG:  Solving for p, Initial residual = 1.06135e-11, Final residual = 1.88022e-14, No Iterations 1
diagonal:  Solving for rho, Initial residual = 0, Final residual = 0, No Iterations 0
time step continuity errors : sum local = 3.53741e-16, global = -3.95639e-17, cumulative = 2.09746e-15
DILUPBiCG:  Solving for p, Initial residual = 1.8771e-07, Final residual = 1.66945e-14, No Iterations 3
DILUPBiCG:  Solving for p, Initial residual = 5.55739e-11, Final residual = 5.67726e-14, No Iterations 1
DILUPBiCG:  Solving for p, Initial residual = 9.69855e-14, Final residual = 9.69855e-14, No Iterations 0
diagonal:  Solving for rho, Initial residual = 0, Final residual = 0, No Iterations 0
time step continuity errors : sum local = 1.15731e-15, global = 9.7477e-17, cumulative = 2.19494e-15
DILUPBiCG:  Solving for p, Initial residual = 1.07643e-09, Final residual = 1.7138e-16, No Iterations 3
DILUPBiCG:  Solving for p, Initial residual = 2.0991e-13, Final residual = 2.0991e-13, No Iterations 0
DILUPBiCG:  Solving for p, Initial residual = 2.0991e-13, Final residual = 2.0991e-13, No Iterations 0
diagonal:  Solving for rho, Initial residual = 0, Final residual = 0, No Iterations 0
time step continuity errors : sum local = 2.35249e-15, global = -5.88683e-19, cumulative = 2.19435e-15
DILUPBiCG:  Solving for epsilon, Initial residual = 1.99409e-05, Final residual = 1.51182e-11, No Iterations 3
DILUPBiCG:  Solving for k, Initial residual = 0.0058242, Final residual = 5.26374e-11, No Iterations 6
ExecutionTime = 0.26 s  ClockTime = 1 s

Time = 4.2e-06

Courant Number mean: 0.00785825 max: 0.18168
diagonal:  Solving for rho, Initial residual = 0, Final residual = 0, No Iterations 0
PIMPLE: iteration 1
DILUPBiCG:  Solving for Ux, Initial residual = 0.000130994, Final residual = 7.52738e-10, No Iterations 3
DILUPBiCG:  Solving for Uy, Initial residual = 0.00139384, Final residual = 4.45173e-10, No Iterations 4
DILUPBiCG:  Solving for Uz, Initial residual = 0.00054116, Final residual = 9.73776e-11, No Iterations 5
DILUPBiCG:  Solving for e, Initial residual = 0.000333746, Final residual = 3.55246e-10, No Iterations 5
DILUPBiCG:  Solving for p, Initial residual = 0.000337385, Final residual = 5.47162e-14, No Iterations 4
DILUPBiCG:  Solving for p, Initial residual = 3.55702e-08, Final residual = 1.87901e-15, No Iterations 3
DILUPBiCG:  Solving for p, Initial residual = 1.20273e-11, Final residual = 1.75291e-14, No Iterations 1
diagonal:  Solving for rho, Initial residual = 0, Final residual = 0, No Iterations 0
time step continuity errors : sum local = 3.48452e-16, global = 4.80612e-18, cumulative = 2.19915e-15
DILUPBiCG:  Solving for p, Initial residual = 1.86558e-07, Final residual = 1.31537e-14, No Iterations 3
DILUPBiCG:  Solving for p, Initial residual = 5.77418e-11, Final residual = 5.36796e-14, No Iterations 1
DILUPBiCG:  Solving for p, Initial residual = 9.40792e-14, Final residual = 9.40792e-14, No Iterations 0
diagonal:  Solving for rho, Initial residual = 0, Final residual = 0, No Iterations 0
time step continuity errors : sum local = 1.24789e-15, global = -1.9237e-16, cumulative = 2.00678e-15
DILUPBiCG:  Solving for p, Initial residual = 9.67645e-10, Final residual = 1.46729e-16, No Iterations 3
DILUPBiCG:  Solving for p, Initial residual = 2.48093e-13, Final residual = 2.48093e-13, No Iterations 0
DILUPBiCG:  Solving for p, Initial residual = 2.48093e-13, Final residual = 2.48093e-13, No Iterations 0
diagonal:  Solving for rho, Initial residual = 0, Final residual = 0, No Iterations 0
time step continuity errors : sum local = 3.10858e-15, global = 1.62282e-17, cumulative = 2.02301e-15
DILUPBiCG:  Solving for epsilon, Initial residual = 1.87047e-05, Final residual = 3.02092e-11, No Iterations 3
DILUPBiCG:  Solving for k, Initial residual = 0.0057672, Final residual = 7.05275e-11, No Iterations 6
ExecutionTime = 0.28 s  ClockTime = 1 s

Time = 4.5e-06

Courant Number mean: 0.00785816 max: 0.18168
diagonal:  Solving for rho, Initial residual = 0, Final residual = 0, No Iterations 0
PIMPLE: iteration 1
DILUPBiCG:  Solving for Ux, Initial residual = 0.000123152, Final residual = 7.0315e-10, No Iterations 3
DILUPBiCG:  Solving for Uy, Initial residual = 0.00125985, Final residual = 4.23142e-10, No Iterations 4
DILUPBiCG:  Solving for Uz, Initial residual = 0.00049757, Final residual = 9.21016e-10, No Iterations 4
DILUPBiCG:  Solving for e, Initial residual = 0.000300142, Final residual = 1.38157e-10, No Iterations 5
DILUPBiCG:  Solving for p, Initial residual = 0.000298034, Final residual = 4.65805e-14, No Iterations 4
DILUPBiCG:  Solving for p, Initial residual = 3.20211e-08, Final residual = 1.65037e-15, No Iterations 3
DILUPBiCG:  Solving for p, Initial residual = 1.11617e-11, Final residual = 1.62057e-14, No Iterations 1
diagonal:  Solving for rho, Initial residual = 0, Final residual = 0, No Iterations 0
time step continuity errors : sum local = 3.79253e-16, global = -2.72459e-17, cumulative = 1.99576e-15
DILUPBiCG:  Solving for p, Initial residual = 1.84773e-07, Final residual = 1.0933e-14, No Iterations 3
DILUPBiCG:  Solving for p, Initial residual = 5.87392e-11, Final residual = 6.25301e-14, No Iterations 1
DILUPBiCG:  Solving for p, Initial residual = 1.00758e-13, Final residual = 1.00758e-13, No Iterations 0
diagonal:  Solving for rho, Initial residual = 0, Final residual = 0, No Iterations 0
time step continuity errors : sum local = 1.50719e-15, global = -3.29388e-16, cumulative = 1.66638e-15
DILUPBiCG:  Solving for p, Initial residual = 8.78091e-10, Final residual = 1.28936e-16, No Iterations 3
DILUPBiCG:  Solving for p, Initial residual = 2.3631e-13, Final residual = 2.3631e-13, No Iterations 0
DILUPBiCG:  Solving for p, Initial residual = 2.3631e-13, Final residual = 2.3631e-13, No Iterations 0
diagonal:  Solving for rho, Initial residual = 0, Final residual = 0, No Iterations 0
time step continuity errors : sum local = 3.35039e-15, global = 1.35911e-17, cumulative = 1.67997e-15
DILUPBiCG:  Solving for epsilon, Initial residual = 1.75889e-05, Final residual = 7.04435e-11, No Iterations 3
DILUPBiCG:  Solving for k, Initial residual = 0.0055171, Final residual = 9.7184e-12, No Iterations 6
ExecutionTime = 0.3 s  ClockTime = 1 s

Time = 4.8e-06

Courant Number mean: 0.00785807 max: 0.18168
diagonal:  Solving for rho, Initial residual = 0, Final residual = 0, No Iterations 0
PIMPLE: iteration 1
DILUPBiCG:  Solving for Ux, Initial residual = 0.000116298, Final residual = 6.53682e-10, No Iterations 3
DILUPBiCG:  Solving for Uy, Initial residual = 0.00115418, Final residual = 3.93313e-10, No Iterations 4
DILUPBiCG:  Solving for Uz, Initial residual = 0.00049067, Final residual = 9.02541e-10, No Iterations 4
DILUPBiCG:  Solving for e, Initial residual = 0.000272389, Final residual = 8.11652e-10, No Iterations 4
DILUPBiCG:  Solving for p, Initial residual = 0.000265595, Final residual = 1.63713e-13, No Iterations 4
DILUPBiCG:  Solving for p, Initial residual = 2.86777e-08, Final residual = 1.55651e-15, No Iterations 3
DILUPBiCG:  Solving for p, Initial residual = 1.14321e-11, Final residual = 1.55047e-14, No Iterations 1
diagonal:  Solving for rho, Initial residual = 0, Final residual = 0, No Iterations 0
time step continuity errors : sum local = 3.81103e-16, global = 2.66958e-18, cumulative = 1.68264e-15
DILUPBiCG:  Solving for p, Initial residual = 1.82269e-07, Final residual = 9.39939e-15, No Iterations 3
DILUPBiCG:  Solving for p, Initial residual = 5.74946e-11, Final residual = 4.98462e-14, No Iterations 1
DILUPBiCG:  Solving for p, Initial residual = 8.61288e-14, Final residual = 8.61288e-14, No Iterations 0
diagonal:  Solving for rho, Initial residual = 0, Final residual = 0, No Iterations 0
time step continuity errors : sum local = 1.43829e-15, global = -1.9591e-16, cumulative = 1.48673e-15
DILUPBiCG:  Solving for p, Initial residual = 8.05046e-10, Final residual = 1.15362e-16, No Iterations 3
DILUPBiCG:  Solving for p, Initial residual = 2.04669e-13, Final residual = 2.04669e-13, No Iterations 0
DILUPBiCG:  Solving for p, Initial residual = 2.04669e-13, Final residual = 2.04669e-13, No Iterations 0
diagonal:  Solving for rho, Initial residual = 0, Final residual = 0, No Iterations 0
time step continuity errors : sum local = 3.24851e-15, global = 1.50538e-17, cumulative = 1.50178e-15
DILUPBiCG:  Solving for epsilon, Initial residual = 1.65938e-05, Final residual = 3.79631e-12, No Iterations 4
DILUPBiCG:  Solving for k, Initial residual = 0.0050952, Final residual = 1.15761e-11, No Iterations 6
ExecutionTime = 0.32 s  ClockTime = 1 s

Time = 5.1e-06

Courant Number mean: 0.00785798 max: 0.18168
diagonal:  Solving for rho, Initial residual = 0, Final residual = 0, No Iterations 0
PIMPLE: iteration 1
DILUPBiCG:  Solving for Ux, Initial residual = 0.000110244, Final residual = 6.07143e-10, No Iterations 3
DILUPBiCG:  Solving for Uy, Initial residual = 0.00106872, Final residual = 3.71593e-10, No Iterations 4
DILUPBiCG:  Solving for Uz, Initial residual = 0.000468716, Final residual = 7.76015e-10, No Iterations 4
DILUPBiCG:  Solving for e, Initial residual = 0.000249096, Final residual = 6.89386e-10, No Iterations 4
DILUPBiCG:  Solving for p, Initial residual = 0.00023849, Final residual = 1.06946e-13, No Iterations 4
DILUPBiCG:  Solving for p, Initial residual = 2.56144e-08, Final residual = 1.35565e-15, No Iterations 3
DILUPBiCG:  Solving for p, Initial residual = 9.88441e-12, Final residual = 1.0987e-14, No Iterations 1
diagonal:  Solving for rho, Initial residual = 0, Final residual = 0, No Iterations 0
time step continuity errors : sum local = 3.45719e-16, global = 3.55157e-17, cumulative = 1.5373e-15
DILUPBiCG:  Solving for p, Initial residual = 1.78524e-07, Final residual = 8.19944e-15, No Iterations 3
DILUPBiCG:  Solving for p, Initial residual = 5.39062e-11, Final residual = 7.3052e-14, No Iterations 1
DILUPBiCG:  Solving for p, Initial residual = 9.87704e-14, Final residual = 9.87704e-14, No Iterations 0
diagonal:  Solving for rho, Initial residual = 0, Final residual = 0, No Iterations 0
time step continuity errors : sum local = 1.80881e-15, global = -3.3331e-16, cumulative = 1.20399e-15
DILUPBiCG:  Solving for p, Initial residual = 7.48145e-10, Final residual = 1.0455e-16, No Iterations 3
DILUPBiCG:  Solving for p, Initial residual = 1.89689e-13, Final residual = 1.89689e-13, No Iterations 0
DILUPBiCG:  Solving for p, Initial residual = 1.89689e-13, Final residual = 1.89689e-13, No Iterations 0
diagonal:  Solving for rho, Initial residual = 0, Final residual = 0, No Iterations 0
time step continuity errors : sum local = 3.35001e-15, global = 2.48892e-18, cumulative = 1.20648e-15
DILUPBiCG:  Solving for epsilon, Initial residual = 1.56975e-05, Final residual = 3.45943e-12, No Iterations 4
DILUPBiCG:  Solving for k, Initial residual = 0.00455714, Final residual = 1.24416e-11, No Iterations 6
ExecutionTime = 0.34 s  ClockTime = 1 s

Time = 5.4e-06

Courant Number mean: 0.00785789 max: 0.18168
diagonal:  Solving for rho, Initial residual = 0, Final residual = 0, No Iterations 0
PIMPLE: iteration 1
DILUPBiCG:  Solving for Ux, Initial residual = 0.000104849, Final residual = 5.66473e-10, No Iterations 3
DILUPBiCG:  Solving for Uy, Initial residual = 0.00100051, Final residual = 3.58268e-10, No Iterations 4
DILUPBiCG:  Solving for Uz, Initial residual = 0.000455222, Final residual = 1.10568e-10, No Iterations 5
DILUPBiCG:  Solving for e, Initial residual = 0.000229339, Final residual = 6.18246e-10, No Iterations 4
DILUPBiCG:  Solving for p, Initial residual = 0.000215577, Final residual = 1.07536e-13, No Iterations 4
DILUPBiCG:  Solving for p, Initial residual = 2.34588e-08, Final residual = 1.21892e-15, No Iterations 3
DILUPBiCG:  Solving for p, Initial residual = 8.74455e-12, Final residual = 9.66432e-15, No Iterations 1
diagonal:  Solving for rho, Initial residual = 0, Final residual = 0, No Iterations 0
time step continuity errors : sum local = 3.27345e-16, global = 2.56576e-17, cumulative = 1.23213e-15
DILUPBiCG:  Solving for p, Initial residual = 1.74504e-07, Final residual = 7.2686e-15, No Iterations 3
DILUPBiCG:  Solving for p, Initial residual = 5.50166e-11, Final residual = 8.21017e-14, No Iterations 1
DILUPBiCG:  Solving for p, Initial residual = 1.04445e-13, Final residual = 1.04445e-13, No Iterations 0
diagonal:  Solving for rho, Initial residual = 0, Final residual = 0, No Iterations 0
time step continuity errors : sum local = 2.07912e-15, global = -3.61016e-16, cumulative = 8.71117e-16
DILUPBiCG:  Solving for p, Initial residual = 7.03242e-10, Final residual = 9.63075e-17, No Iterations 3
DILUPBiCG:  Solving for p, Initial residual = 1.81348e-13, Final residual = 1.81348e-13, No Iterations 0
DILUPBiCG:  Solving for p, Initial residual = 1.81348e-13, Final residual = 1.81348e-13, No Iterations 0
diagonal:  Solving for rho, Initial residual = 0, Final residual = 0, No Iterations 0
time step continuity errors : sum local = 3.5099e-15, global = -7.81784e-18, cumulative = 8.63299e-16
DILUPBiCG:  Solving for epsilon, Initial residual = 1.48876e-05, Final residual = 3.53522e-12, No Iterations 4
DILUPBiCG:  Solving for k, Initial residual = 0.00397063, Final residual = 1.2688e-11, No Iterations 6
ExecutionTime = 0.36 s  ClockTime = 1 s

Time = 5.7e-06

Courant Number mean: 0.00785781 max: 0.18168
diagonal:  Solving for rho, Initial residual = 0, Final residual = 0, No Iterations 0
PIMPLE: iteration 1
DILUPBiCG:  Solving for Ux, Initial residual = 0.00010001, Final residual = 5.31546e-10, No Iterations 3
DILUPBiCG:  Solving for Uy, Initial residual = 0.000943281, Final residual = 3.48883e-10, No Iterations 4
DILUPBiCG:  Solving for Uz, Initial residual = 0.000435039, Final residual = 8.24514e-10, No Iterations 4
DILUPBiCG:  Solving for e, Initial residual = 0.000212519, Final residual = 5.84248e-10, No Iterations 4
DILUPBiCG:  Solving for p, Initial residual = 0.000196002, Final residual = 1.07952e-13, No Iterations 4
DILUPBiCG:  Solving for p, Initial residual = 2.15383e-08, Final residual = 1.09984e-15, No Iterations 3
DILUPBiCG:  Solving for p, Initial residual = 8.11597e-12, Final residual = 9.06096e-15, No Iterations 1
diagonal:  Solving for rho, Initial residual = 0, Final residual = 0, No Iterations 0
time step continuity errors : sum local = 3.2598e-16, global = 2.67153e-17, cumulative = 8.90014e-16
DILUPBiCG:  Solving for p, Initial residual = 1.69738e-07, Final residual = 6.50886e-15, No Iterations 3
DILUPBiCG:  Solving for p, Initial residual = 5.38473e-11, Final residual = 7.96487e-14, No Iterations 1
DILUPBiCG:  Solving for p, Initial residual = 1.00721e-13, Final residual = 1.00721e-13, No Iterations 0
diagonal:  Solving for rho, Initial residual = 0, Final residual = 0, No Iterations 0
time step continuity errors : sum local = 2.19303e-15, global = -3.7167e-16, cumulative = 5.18345e-16
DILUPBiCG:  Solving for p, Initial residual = 6.68775e-10, Final residual = 8.9641e-17, No Iterations 3
DILUPBiCG:  Solving for p, Initial residual = 1.7416e-13, Final residual = 1.7416e-13, No Iterations 0
DILUPBiCG:  Solving for p, Initial residual = 1.7416e-13, Final residual = 1.7416e-13, No Iterations 0
diagonal:  Solving for rho, Initial residual = 0, Final residual = 0, No Iterations 0
time step continuity errors : sum local = 3.71067e-15, global = -5.12793e-18, cumulative = 5.13217e-16
DILUPBiCG:  Solving for epsilon, Initial residual = 1.41873e-05, Final residual = 8.7873e-11, No Iterations 3
DILUPBiCG:  Solving for k, Initial residual = 0.00339526, Final residual = 1.23902e-11, No Iterations 6
ExecutionTime = 0.38 s  ClockTime = 1 s

Time = 6e-06

Courant Number mean: 0.00785772 max: 0.18168
diagonal:  Solving for rho, Initial residual = 0, Final residual = 0, No Iterations 0
PIMPLE: iteration 1
DILUPBiCG:  Solving for Ux, Initial residual = 9.5646e-05, Final residual = 5.00769e-10, No Iterations 3
DILUPBiCG:  Solving for Uy, Initial residual = 0.00089458, Final residual = 3.40624e-10, No Iterations 4
DILUPBiCG:  Solving for Uz, Initial residual = 0.000422407, Final residual = 5.67215e-10, No Iterations 4
DILUPBiCG:  Solving for e, Initial residual = 0.000198042, Final residual = 5.56759e-10, No Iterations 4
DILUPBiCG:  Solving for p, Initial residual = 0.000179134, Final residual = 1.04724e-13, No Iterations 4
DILUPBiCG:  Solving for p, Initial residual = 1.9933e-08, Final residual = 1.05905e-15, No Iterations 3
DILUPBiCG:  Solving for p, Initial residual = 7.63449e-12, Final residual = 9.15248e-15, No Iterations 1
diagonal:  Solving for rho, Initial residual = 0, Final residual = 0, No Iterations 0
time step continuity errors : sum local = 3.52083e-16, global = 5.56543e-17, cumulative = 5.68871e-16
DILUPBiCG:  Solving for p, Initial residual = 1.6489e-07, Final residual = 5.88108e-15, No Iterations 3
DILUPBiCG:  Solving for p, Initial residual = 5.27733e-11, Final residual = 7.28006e-14, No Iterations 1
DILUPBiCG:  Solving for p, Initial residual = 9.60656e-14, Final residual = 9.60656e-14, No Iterations 0
diagonal:  Solving for rho, Initial residual = 0, Final residual = 0, No Iterations 0
time step continuity errors : sum local = 2.28836e-15, global = -4.28106e-16, cumulative = 1.40765e-16
DILUPBiCG:  Solving for p, Initial residual = 6.40121e-10, Final residual = 8.41241e-17, No Iterations 3
DILUPBiCG:  Solving for p, Initial residual = 1.6839e-13, Final residual = 1.6839e-13, No Iterations 0
DILUPBiCG:  Solving for p, Initial residual = 1.6839e-13, Final residual = 1.6839e-13, No Iterations 0
diagonal:  Solving for rho, Initial residual = 0, Final residual = 0, No Iterations 0
time step continuity errors : sum local = 3.92241e-15, global = 7.57772e-18, cumulative = 1.48343e-16
DILUPBiCG:  Solving for epsilon, Initial residual = 1.36331e-05, Final residual = 7.66887e-11, No Iterations 3
DILUPBiCG:  Solving for k, Initial residual = 0.0028702, Final residual = 1.1642e-11, No Iterations 6
ExecutionTime = 0.4 s  ClockTime = 1 s

Time = 6.3e-06

Courant Number mean: 0.00785764 max: 0.18168
diagonal:  Solving for rho, Initial residual = 0, Final residual = 0, No Iterations 0
PIMPLE: iteration 1
DILUPBiCG:  Solving for Ux, Initial residual = 9.16964e-05, Final residual = 4.73801e-10, No Iterations 3
DILUPBiCG:  Solving for Uy, Initial residual = 0.000852791, Final residual = 3.33821e-10, No Iterations 4
DILUPBiCG:  Solving for Uz, Initial residual = 0.000398984, Final residual = 9.47101e-10, No Iterations 4
DILUPBiCG:  Solving for e, Initial residual = 0.000185493, Final residual = 5.31599e-10, No Iterations 4
DILUPBiCG:  Solving for p, Initial residual = 0.000164488, Final residual = 1.00288e-13, No Iterations 4
DILUPBiCG:  Solving for p, Initial residual = 1.84915e-08, Final residual = 1.02635e-15, No Iterations 3
DILUPBiCG:  Solving for p, Initial residual = 7.04936e-12, Final residual = 9.05393e-15, No Iterations 1
diagonal:  Solving for rho, Initial residual = 0, Final residual = 0, No Iterations 0
time step continuity errors : sum local = 3.7988e-16, global = 4.27638e-17, cumulative = 1.91107e-16
DILUPBiCG:  Solving for p, Initial residual = 1.59964e-07, Final residual = 5.35877e-15, No Iterations 3
DILUPBiCG:  Solving for p, Initial residual = 5.16561e-11, Final residual = 6.99057e-14, No Iterations 1
DILUPBiCG:  Solving for p, Initial residual = 9.31312e-14, Final residual = 9.31312e-14, No Iterations 0
diagonal:  Solving for rho, Initial residual = 0, Final residual = 0, No Iterations 0
time step continuity errors : sum local = 2.42866e-15, global = -4.70211e-16, cumulative = -2.79104e-16
DILUPBiCG:  Solving for p, Initial residual = 6.16339e-10, Final residual = 7.92272e-17, No Iterations 3
DILUPBiCG:  Solving for p, Initial residual = 1.63122e-13, Final residual = 1.63122e-13, No Iterations 0
DILUPBiCG:  Solving for p, Initial residual = 1.63122e-13, Final residual = 1.63122e-13, No Iterations 0
diagonal:  Solving for rho, Initial residual = 0, Final residual = 0, No Iterations 0
time step continuity errors : sum local = 4.15497e-15, global = -8.17416e-18, cumulative = -2.87278e-16
DILUPBiCG:  Solving for epsilon, Initial residual = 1.31627e-05, Final residual = 7.06869e-11, No Iterations 3
DILUPBiCG:  Solving for k, Initial residual = 0.00241355, Final residual = 9.04069e-11, No Iterations 5
ExecutionTime = 0.42 s  ClockTime = 1 s

Time = 6.6e-06

Courant Number mean: 0.00785755 max: 0.18168
diagonal:  Solving for rho, Initial residual = 0, Final residual = 0, No Iterations 0
PIMPLE: iteration 1
DILUPBiCG:  Solving for Ux, Initial residual = 8.8113e-05, Final residual = 4.50803e-10, No Iterations 3
DILUPBiCG:  Solving for Uy, Initial residual = 0.000816669, Final residual = 3.29112e-10, No Iterations 4
DILUPBiCG:  Solving for Uz, Initial residual = 0.000395147, Final residual = 5.76627e-10, No Iterations 4
DILUPBiCG:  Solving for e, Initial residual = 0.000174604, Final residual = 5.09694e-10, No Iterations 4
DILUPBiCG:  Solving for p, Initial residual = 0.000151681, Final residual = 9.49627e-14, No Iterations 4
DILUPBiCG:  Solving for p, Initial residual = 1.72169e-08, Final residual = 9.79233e-13, No Iterations 2
DILUPBiCG:  Solving for p, Initial residual = 7.07117e-12, Final residual = 1.10765e-14, No Iterations 1
diagonal:  Solving for rho, Initial residual = 0, Final residual = 0, No Iterations 0
time step continuity errors : sum local = 4.44634e-16, global = 1.17183e-16, cumulative = -1.70095e-16
DILUPBiCG:  Solving for p, Initial residual = 1.55233e-07, Final residual = 4.91033e-15, No Iterations 3
DILUPBiCG:  Solving for p, Initial residual = 5.05916e-11, Final residual = 6.71864e-14, No Iterations 1
DILUPBiCG:  Solving for p, Initial residual = 9.06817e-14, Final residual = 9.06817e-14, No Iterations 0
diagonal:  Solving for rho, Initial residual = 0, Final residual = 0, No Iterations 0
time step continuity errors : sum local = 2.54923e-15, global = -4.80205e-16, cumulative = -6.50301e-16
DILUPBiCG:  Solving for p, Initial residual = 5.95366e-10, Final residual = 7.47202e-17, No Iterations 3
DILUPBiCG:  Solving for p, Initial residual = 1.58575e-13, Final residual = 1.58575e-13, No Iterations 0
DILUPBiCG:  Solving for p, Initial residual = 1.58575e-13, Final residual = 1.58575e-13, No Iterations 0
diagonal:  Solving for rho, Initial residual = 0, Final residual = 0, No Iterations 0
time step continuity errors : sum local = 4.35547e-15, global = -5.75479e-18, cumulative = -6.56056e-16
DILUPBiCG:  Solving for epsilon, Initial residual = 1.27659e-05, Final residual = 6.68813e-11, No Iterations 3
DILUPBiCG:  Solving for k, Initial residual = 0.00202885, Final residual = 7.87209e-11, No Iterations 5
ExecutionTime = 0.44 s  ClockTime = 1 s

Time = 6.9e-06

Courant Number mean: 0.00785747 max: 0.18168
diagonal:  Solving for rho, Initial residual = 0, Final residual = 0, No Iterations 0
PIMPLE: iteration 1
DILUPBiCG:  Solving for Ux, Initial residual = 8.48483e-05, Final residual = 4.31295e-10, No Iterations 3
DILUPBiCG:  Solving for Uy, Initial residual = 0.000785379, Final residual = 3.25441e-10, No Iterations 4
DILUPBiCG:  Solving for Uz, Initial residual = 0.000380053, Final residual = 8.18738e-10, No Iterations 4
DILUPBiCG:  Solving for e, Initial residual = 0.000165089, Final residual = 4.91e-10, No Iterations 4
DILUPBiCG:  Solving for p, Initial residual = 0.000140416, Final residual = 8.92655e-14, No Iterations 4
DILUPBiCG:  Solving for p, Initial residual = 1.60698e-08, Final residual = 9.24207e-13, No Iterations 2
DILUPBiCG:  Solving for p, Initial residual = 6.51342e-12, Final residual = 1.02992e-14, No Iterations 1
diagonal:  Solving for rho, Initial residual = 0, Final residual = 0, No Iterations 0
time step continuity errors : sum local = 4.50977e-16, global = 1.24282e-16, cumulative = -5.31774e-16
DILUPBiCG:  Solving for p, Initial residual = 1.50637e-07, Final residual = 4.52426e-15, No Iterations 3
DILUPBiCG:  Solving for p, Initial residual = 4.9368e-11, Final residual = 6.44357e-14, No Iterations 1
DILUPBiCG:  Solving for p, Initial residual = 8.83137e-14, Final residual = 8.83137e-14, No Iterations 0
diagonal:  Solving for rho, Initial residual = 0, Final residual = 0, No Iterations 0
time step continuity errors : sum local = 2.67952e-15, global = -4.95819e-16, cumulative = -1.02759e-15
DILUPBiCG:  Solving for p, Initial residual = 5.78133e-10, Final residual = 7.06265e-17, No Iterations 3
DILUPBiCG:  Solving for p, Initial residual = 1.55518e-13, Final residual = 1.55518e-13, No Iterations 0
DILUPBiCG:  Solving for p, Initial residual = 1.55518e-13, Final residual = 1.55518e-13, No Iterations 0
diagonal:  Solving for rho, Initial residual = 0, Final residual = 0, No Iterations 0
time step continuity errors : sum local = 4.62248e-15, global = -1.72611e-19, cumulative = -1.02777e-15
DILUPBiCG:  Solving for epsilon, Initial residual = 1.24378e-05, Final residual = 6.43899e-11, No Iterations 3
DILUPBiCG:  Solving for k, Initial residual = 0.00171026, Final residual = 6.88319e-11, No Iterations 5
ExecutionTime = 0.46 s  ClockTime = 1 s

Time = 7.2e-06

Courant Number mean: 0.00785739 max: 0.18168
diagonal:  Solving for rho, Initial residual = 0, Final residual = 0, No Iterations 0
PIMPLE: iteration 1
DILUPBiCG:  Solving for Ux, Initial residual = 8.18691e-05, Final residual = 4.15851e-10, No Iterations 3
DILUPBiCG:  Solving for Uy, Initial residual = 0.000759169, Final residual = 3.22357e-10, No Iterations 4
DILUPBiCG:  Solving for Uz, Initial residual = 0.000359322, Final residual = 9.78765e-10, No Iterations 4
DILUPBiCG:  Solving for e, Initial residual = 0.000156727, Final residual = 4.74911e-10, No Iterations 4
DILUPBiCG:  Solving for p, Initial residual = 0.000130433, Final residual = 8.43671e-14, No Iterations 4
DILUPBiCG:  Solving for p, Initial residual = 1.50488e-08, Final residual = 8.51908e-13, No Iterations 2
DILUPBiCG:  Solving for p, Initial residual = 5.76633e-12, Final residual = 9.06896e-15, No Iterations 1
diagonal:  Solving for rho, Initial residual = 0, Final residual = 0, No Iterations 0
time step continuity errors : sum local = 4.28046e-16, global = 7.35929e-17, cumulative = -9.54172e-16
DILUPBiCG:  Solving for p, Initial residual = 1.46003e-07, Final residual = 4.23299e-15, No Iterations 3
DILUPBiCG:  Solving for p, Initial residual = 4.82331e-11, Final residual = 4.88931e-14, No Iterations 1
DILUPBiCG:  Solving for p, Initial residual = 8.08849e-14, Final residual = 8.08849e-14, No Iterations 0
diagonal:  Solving for rho, Initial residual = 0, Final residual = 0, No Iterations 0
time step continuity errors : sum local = 2.6447e-15, global = -6.36163e-16, cumulative = -1.59034e-15
DILUPBiCG:  Solving for p, Initial residual = 5.64359e-10, Final residual = 6.71397e-17, No Iterations 3
DILUPBiCG:  Solving for p, Initial residual = 1.49057e-13, Final residual = 1.49057e-13, No Iterations 0
DILUPBiCG:  Solving for p, Initial residual = 1.49057e-13, Final residual = 1.49057e-13, No Iterations 0
diagonal:  Solving for rho, Initial residual = 0, Final residual = 0, No Iterations 0
time step continuity errors : sum local = 4.76989e-15, global = -1.23322e-17, cumulative = -1.60267e-15
DILUPBiCG:  Solving for epsilon, Initial residual = 1.21819e-05, Final residual = 6.28417e-11, No Iterations 3
DILUPBiCG:  Solving for k, Initial residual = 0.00144917, Final residual = 6.04529e-11, No Iterations 5
ExecutionTime = 0.48 s  ClockTime = 1 s

Time = 7.5e-06

Courant Number mean: 0.00785731 max: 0.18168
diagonal:  Solving for rho, Initial residual = 0, Final residual = 0, No Iterations 0
PIMPLE: iteration 1
DILUPBiCG:  Solving for Ux, Initial residual = 7.91416e-05, Final residual = 4.02744e-10, No Iterations 3
DILUPBiCG:  Solving for Uy, Initial residual = 0.000736681, Final residual = 3.20375e-10, No Iterations 4
DILUPBiCG:  Solving for Uz, Initial residual = 0.000353418, Final residual = 8.20827e-10, No Iterations 4
DILUPBiCG:  Solving for e, Initial residual = 0.000149304, Final residual = 4.61625e-10, No Iterations 4
DILUPBiCG:  Solving for p, Initial residual = 0.000121542, Final residual = 8.03547e-14, No Iterations 4
DILUPBiCG:  Solving for p, Initial residual = 1.4085e-08, Final residual = 7.69332e-13, No Iterations 2
DILUPBiCG:  Solving for p, Initial residual = 5.43152e-12, Final residual = 8.27274e-15, No Iterations 1
diagonal:  Solving for rho, Initial residual = 0, Final residual = 0, No Iterations 0
time step continuity errors : sum local = 4.31783e-16, global = 9.43e-17, cumulative = -1.50837e-15
DILUPBiCG:  Solving for p, Initial residual = 1.41402e-07, Final residual = 3.99727e-15, No Iterations 3
DILUPBiCG:  Solving for p, Initial residual = 4.69849e-11, Final residual = 4.56739e-14, No Iterations 1
DILUPBiCG:  Solving for p, Initial residual = 7.73616e-14, Final residual = 7.73616e-14, No Iterations 0
diagonal:  Solving for rho, Initial residual = 0, Final residual = 0, No Iterations 0
time step continuity errors : sum local = 2.72553e-15, global = -6.2741e-16, cumulative = -2.13578e-15
DILUPBiCG:  Solving for p, Initial residual = 5.52738e-10, Final residual = 6.39906e-17, No Iterations 3
DILUPBiCG:  Solving for p, Initial residual = 1.5003e-13, Final residual = 1.5003e-13, No Iterations 0
DILUPBiCG:  Solving for p, Initial residual = 1.5003e-13, Final residual = 1.5003e-13, No Iterations 0
diagonal:  Solving for rho, Initial residual = 0, Final residual = 0, No Iterations 0
time step continuity errors : sum local = 5.16358e-15, global = 7.37639e-18, cumulative = -2.1284e-15
DILUPBiCG:  Solving for epsilon, Initial residual = 1.19935e-05, Final residual = 6.20058e-11, No Iterations 3
DILUPBiCG:  Solving for k, Initial residual = 0.00123621, Final residual = 5.34371e-11, No Iterations 5
ExecutionTime = 0.5 s  ClockTime = 1 s

Time = 7.8e-06

Courant Number mean: 0.00785722 max: 0.18168
diagonal:  Solving for rho, Initial residual = 0, Final residual = 0, No Iterations 0
PIMPLE: iteration 1
DILUPBiCG:  Solving for Ux, Initial residual = 7.6644e-05, Final residual = 3.92012e-10, No Iterations 3
DILUPBiCG:  Solving for Uy, Initial residual = 0.000717028, Final residual = 3.19237e-10, No Iterations 4
DILUPBiCG:  Solving for Uz, Initial residual = 0.000340527, Final residual = 8.57453e-10, No Iterations 4
DILUPBiCG:  Solving for e, Initial residual = 0.000142632, Final residual = 4.50317e-10, No Iterations 4
DILUPBiCG:  Solving for p, Initial residual = 0.00011359, Final residual = 7.56597e-14, No Iterations 4
DILUPBiCG:  Solving for p, Initial residual = 1.32517e-08, Final residual = 7.22523e-13, No Iterations 2
DILUPBiCG:  Solving for p, Initial residual = 5.16608e-12, Final residual = 7.3474e-15, No Iterations 1
diagonal:  Solving for rho, Initial residual = 0, Final residual = 0, No Iterations 0
time step continuity errors : sum local = 4.10957e-16, global = 6.63903e-17, cumulative = -2.06201e-15
DILUPBiCG:  Solving for p, Initial residual = 1.36992e-07, Final residual = 3.78036e-15, No Iterations 3
DILUPBiCG:  Solving for p, Initial residual = 4.6128e-11, Final residual = 4.77909e-14, No Iterations 1
DILUPBiCG:  Solving for p, Initial residual = 7.32225e-14, Final residual = 7.32225e-14, No Iterations 0
diagonal:  Solving for rho, Initial residual = 0, Final residual = 0, No Iterations 0
time step continuity errors : sum local = 2.75541e-15, global = -6.09832e-17, cumulative = -2.12299e-15
DILUPBiCG:  Solving for p, Initial residual = 5.66272e-10, Final residual = 6.1104e-17, No Iterations 3
DILUPBiCG:  Solving for p, Initial residual = 1.61392e-13, Final residual = 1.61392e-13, No Iterations 0
DILUPBiCG:  Solving for p, Initial residual = 1.61392e-13, Final residual = 1.61392e-13, No Iterations 0
diagonal:  Solving for rho, Initial residual = 0, Final residual = 0, No Iterations 0
time step continuity errors : sum local = 5.92587e-15, global = 6.66097e-18, cumulative = -2.11633e-15
DILUPBiCG:  Solving for epsilon, Initial residual = 1.18929e-05, Final residual = 6.0637e-11, No Iterations 3
DILUPBiCG:  Solving for k, Initial residual = 0.00106248, Final residual = 4.76791e-11, No Iterations 5
ExecutionTime = 0.51 s  ClockTime = 1 s

Time = 8.1e-06

Courant Number mean: 0.00785714 max: 0.18168
diagonal:  Solving for rho, Initial residual = 0, Final residual = 0, No Iterations 0
PIMPLE: iteration 1
DILUPBiCG:  Solving for Ux, Initial residual = 7.43791e-05, Final residual = 3.85381e-10, No Iterations 3
DILUPBiCG:  Solving for Uy, Initial residual = 0.000699631, Final residual = 3.19031e-10, No Iterations 4
DILUPBiCG:  Solving for Uz, Initial residual = 0.000339199, Final residual = 8.35763e-10, No Iterations 4
DILUPBiCG:  Solving for e, Initial residual = 0.000136705, Final residual = 4.46627e-10, No Iterations 4
DILUPBiCG:  Solving for p, Initial residual = 0.000106512, Final residual = 7.05866e-14, No Iterations 4
DILUPBiCG:  Solving for p, Initial residual = 1.26425e-08, Final residual = 8.25952e-13, No Iterations 2
DILUPBiCG:  Solving for p, Initial residual = 5.24575e-12, Final residual = 8.40387e-15, No Iterations 1
diagonal:  Solving for rho, Initial residual = 0, Final residual = 0, No Iterations 0
time step continuity errors : sum local = 4.78341e-16, global = 1.3636e-16, cumulative = -1.97997e-15
DILUPBiCG:  Solving for p, Initial residual = 1.32565e-07, Final residual = 3.58639e-15, No Iterations 3
DILUPBiCG:  Solving for p, Initial residual = 4.48985e-11, Final residual = 4.4908e-14, No Iterations 1
DILUPBiCG:  Solving for p, Initial residual = 7.06274e-14, Final residual = 7.06274e-14, No Iterations 0
diagonal:  Solving for rho, Initial residual = 0, Final residual = 0, No Iterations 0
time step continuity errors : sum local = 2.84753e-15, global = -6.99051e-17, cumulative = -2.04988e-15
DILUPBiCG:  Solving for p, Initial residual = 5.55869e-10, Final residual = 5.87273e-17, No Iterations 3
DILUPBiCG:  Solving for p, Initial residual = 1.5755e-13, Final residual = 1.5755e-13, No Iterations 0
DILUPBiCG:  Solving for p, Initial residual = 1.5755e-13, Final residual = 1.5755e-13, No Iterations 0
diagonal:  Solving for rho, Initial residual = 0, Final residual = 0, No Iterations 0
time step continuity errors : sum local = 6.18902e-15, global = 1.32887e-17, cumulative = -2.03659e-15
DILUPBiCG:  Solving for epsilon, Initial residual = 1.18677e-05, Final residual = 5.75789e-11, No Iterations 3
DILUPBiCG:  Solving for k, Initial residual = 0.000920509, Final residual = 4.28884e-11, No Iterations 5
ExecutionTime = 0.53 s  ClockTime = 1 s

Time = 8.4e-06

Courant Number mean: 0.00785706 max: 0.18168
diagonal:  Solving for rho, Initial residual = 0, Final residual = 0, No Iterations 0
PIMPLE: iteration 1
DILUPBiCG:  Solving for Ux, Initial residual = 7.23021e-05, Final residual = 3.80855e-10, No Iterations 3
DILUPBiCG:  Solving for Uy, Initial residual = 0.000684633, Final residual = 3.19436e-10, No Iterations 4
DILUPBiCG:  Solving for Uz, Initial residual = 0.00032397, Final residual = 9.61579e-10, No Iterations 4
DILUPBiCG:  Solving for e, Initial residual = 0.000131396, Final residual = 4.50852e-10, No Iterations 4
DILUPBiCG:  Solving for p, Initial residual = 0.00010014, Final residual = 6.64301e-14, No Iterations 4
DILUPBiCG:  Solving for p, Initial residual = 1.21031e-08, Final residual = 7.51913e-13, No Iterations 2
DILUPBiCG:  Solving for p, Initial residual = 5.36917e-12, Final residual = 8.37838e-15, No Iterations 1
diagonal:  Solving for rho, Initial residual = 0, Final residual = 0, No Iterations 0
time step continuity errors : sum local = 4.85411e-16, global = 1.48586e-16, cumulative = -1.888e-15
DILUPBiCG:  Solving for p, Initial residual = 1.28418e-07, Final residual = 3.40453e-15, No Iterations 3
DILUPBiCG:  Solving for p, Initial residual = 4.38115e-11, Final residual = 4.27076e-14, No Iterations 1
DILUPBiCG:  Solving for p, Initial residual = 7.04367e-14, Final residual = 7.04367e-14, No Iterations 0
diagonal:  Solving for rho, Initial residual = 0, Final residual = 0, No Iterations 0
time step continuity errors : sum local = 3.00944e-15, global = -8.09477e-17, cumulative = -1.96895e-15
DILUPBiCG:  Solving for p, Initial residual = 5.45095e-10, Final residual = 5.76034e-17, No Iterations 3
DILUPBiCG:  Solving for p, Initial residual = 1.60029e-13, Final residual = 1.60029e-13, No Iterations 0
DILUPBiCG:  Solving for p, Initial residual = 1.60029e-13, Final residual = 1.60029e-13, No Iterations 0
diagonal:  Solving for rho, Initial residual = 0, Final residual = 0, No Iterations 0
time step continuity errors : sum local = 6.68772e-15, global = 2.19868e-18, cumulative = -1.96675e-15
DILUPBiCG:  Solving for epsilon, Initial residual = 1.19179e-05, Final residual = 5.38969e-11, No Iterations 3
DILUPBiCG:  Solving for k, Initial residual = 0.000804005, Final residual = 3.88183e-11, No Iterations 5
ExecutionTime = 0.55 s  ClockTime = 1 s

Time = 8.7e-06

Courant Number mean: 0.00785698 max: 0.18168
diagonal:  Solving for rho, Initial residual = 0, Final residual = 0, No Iterations 0
PIMPLE: iteration 1
DILUPBiCG:  Solving for Ux, Initial residual = 7.03881e-05, Final residual = 3.78522e-10, No Iterations 3
DILUPBiCG:  Solving for Uy, Initial residual = 0.00067162, Final residual = 3.20103e-10, No Iterations 4
DILUPBiCG:  Solving for Uz, Initial residual = 0.000310575, Final residual = 7.95757e-10, No Iterations 4
DILUPBiCG:  Solving for e, Initial residual = 0.000126555, Final residual = 4.60817e-10, No Iterations 4
DILUPBiCG:  Solving for p, Initial residual = 9.43657e-05, Final residual = 6.34791e-14, No Iterations 4
DILUPBiCG:  Solving for p, Initial residual = 1.15761e-08, Final residual = 7.8712e-13, No Iterations 2
DILUPBiCG:  Solving for p, Initial residual = 5.11917e-12, Final residual = 1.1091e-14, No Iterations 1
diagonal:  Solving for rho, Initial residual = 0, Final residual = 0, No Iterations 0
time step continuity errors : sum local = 6.34365e-16, global = 1.77135e-16, cumulative = -1.78962e-15
DILUPBiCG:  Solving for p, Initial residual = 1.24477e-07, Final residual = 3.23818e-15, No Iterations 3
DILUPBiCG:  Solving for p, Initial residual = 4.28783e-11, Final residual = 3.88521e-14, No Iterations 1
DILUPBiCG:  Solving for p, Initial residual = 6.59782e-14, Final residual = 6.59782e-14, No Iterations 0
diagonal:  Solving for rho, Initial residual = 0, Final residual = 0, No Iterations 0
time step continuity errors : sum local = 3.0052e-15, global = -3.21913e-17, cumulative = -1.82181e-15
DILUPBiCG:  Solving for p, Initial residual = 5.34072e-10, Final residual = 5.68383e-17, No Iterations 3
DILUPBiCG:  Solving for p, Initial residual = 1.61677e-13, Final residual = 1.61677e-13, No Iterations 0
DILUPBiCG:  Solving for p, Initial residual = 1.61677e-13, Final residual = 1.61677e-13, No Iterations 0
diagonal:  Solving for rho, Initial residual = 0, Final residual = 0, No Iterations 0
time step continuity errors : sum local = 7.18213e-15, global = -3.90365e-19, cumulative = -1.8222e-15
DILUPBiCG:  Solving for epsilon, Initial residual = 1.20487e-05, Final residual = 5.10283e-11, No Iterations 3
DILUPBiCG:  Solving for k, Initial residual = 0.000708018, Final residual = 3.53278e-11, No Iterations 5
ExecutionTime = 0.57 s  ClockTime = 1 s

Time = 9e-06

Courant Number mean: 0.0078569 max: 0.18168
diagonal:  Solving for rho, Initial residual = 0, Final residual = 0, No Iterations 0
PIMPLE: iteration 1
DILUPBiCG:  Solving for Ux, Initial residual = 6.86228e-05, Final residual = 3.78989e-10, No Iterations 3
DILUPBiCG:  Solving for Uy, Initial residual = 0.000660402, Final residual = 3.21123e-10, No Iterations 4
DILUPBiCG:  Solving for Uz, Initial residual = 0.00030196, Final residual = 8.06861e-10, No Iterations 4
DILUPBiCG:  Solving for e, Initial residual = 0.000122145, Final residual = 4.73058e-10, No Iterations 4
DILUPBiCG:  Solving for p, Initial residual = 8.91112e-05, Final residual = 6.19523e-14, No Iterations 4
DILUPBiCG:  Solving for p, Initial residual = 1.11694e-08, Final residual = 3.17089e-13, No Iterations 2
DILUPBiCG:  Solving for p, Initial residual = 4.75963e-12, Final residual = 7.11002e-15, No Iterations 1
diagonal:  Solving for rho, Initial residual = 0, Final residual = 0, No Iterations 0
time step continuity errors : sum local = 4.81821e-16, global = 1.54734e-16, cumulative = -1.66747e-15
DILUPBiCG:  Solving for p, Initial residual = 1.20693e-07, Final residual = 3.08612e-15, No Iterations 3
DILUPBiCG:  Solving for p, Initial residual = 4.19166e-11, Final residual = 3.94862e-14, No Iterations 1
DILUPBiCG:  Solving for p, Initial residual = 6.56387e-14, Final residual = 6.56387e-14, No Iterations 0
diagonal:  Solving for rho, Initial residual = 0, Final residual = 0, No Iterations 0
time step continuity errors : sum local = 3.17369e-15, global = -8.43233e-18, cumulative = -1.6759e-15
DILUPBiCG:  Solving for p, Initial residual = 5.24208e-10, Final residual = 5.60704e-17, No Iterations 3
DILUPBiCG:  Solving for p, Initial residual = 1.52976e-13, Final residual = 1.52976e-13, No Iterations 0
DILUPBiCG:  Solving for p, Initial residual = 1.52976e-13, Final residual = 1.52976e-13, No Iterations 0
diagonal:  Solving for rho, Initial residual = 0, Final residual = 0, No Iterations 0
time step continuity errors : sum local = 7.22194e-15, global = -2.20004e-18, cumulative = -1.6781e-15
DILUPBiCG:  Solving for epsilon, Initial residual = 1.22672e-05, Final residual = 5.01509e-11, No Iterations 3
DILUPBiCG:  Solving for k, Initial residual = 0.000628448, Final residual = 3.23031e-11, No Iterations 5
ExecutionTime = 0.6 s  ClockTime = 1 s

Time = 9.3e-06

Courant Number mean: 0.00785682 max: 0.18168
diagonal:  Solving for rho, Initial residual = 0, Final residual = 0, No Iterations 0
PIMPLE: iteration 1
DILUPBiCG:  Solving for Ux, Initial residual = 6.69869e-05, Final residual = 3.82864e-10, No Iterations 3
DILUPBiCG:  Solving for Uy, Initial residual = 0.000650698, Final residual = 3.22463e-10, No Iterations 4
DILUPBiCG:  Solving for Uz, Initial residual = 0.000305193, Final residual = 8.01123e-10, No Iterations 4
DILUPBiCG:  Solving for e, Initial residual = 0.000118046, Final residual = 4.82842e-10, No Iterations 4
DILUPBiCG:  Solving for p, Initial residual = 8.43125e-05, Final residual = 6.13984e-14, No Iterations 4
DILUPBiCG:  Solving for p, Initial residual = 1.05292e-08, Final residual = 3.10034e-13, No Iterations 2
DILUPBiCG:  Solving for p, Initial residual = 4.54104e-12, Final residual = 6.69162e-15, No Iterations 1
diagonal:  Solving for rho, Initial residual = 0, Final residual = 0, No Iterations 0
time step continuity errors : sum local = 4.75203e-16, global = 1.91902e-16, cumulative = -1.4862e-15
DILUPBiCG:  Solving for p, Initial residual = 1.17082e-07, Final residual = 9.44463e-13, No Iterations 2
DILUPBiCG:  Solving for p, Initial residual = 4.17274e-11, Final residual = 4.23141e-14, No Iterations 1
DILUPBiCG:  Solving for p, Initial residual = 6.85215e-14, Final residual = 6.85215e-14, No Iterations 0
diagonal:  Solving for rho, Initial residual = 0, Final residual = 0, No Iterations 0
time step continuity errors : sum local = 3.49543e-15, global = -7.60502e-17, cumulative = -1.56225e-15
DILUPBiCG:  Solving for p, Initial residual = 5.14403e-10, Final residual = 5.56076e-17, No Iterations 3
DILUPBiCG:  Solving for p, Initial residual = 1.50797e-13, Final residual = 1.50797e-13, No Iterations 0
DILUPBiCG:  Solving for p, Initial residual = 1.50797e-13, Final residual = 1.50797e-13, No Iterations 0
diagonal:  Solving for rho, Initial residual = 0, Final residual = 0, No Iterations 0
time step continuity errors : sum local = 7.54072e-15, global = 1.38193e-17, cumulative = -1.54843e-15
DILUPBiCG:  Solving for epsilon, Initial residual = 1.2582e-05, Final residual = 5.23577e-11, No Iterations 3
DILUPBiCG:  Solving for k, Initial residual = 0.000562132, Final residual = 2.96609e-11, No Iterations 5
ExecutionTime = 0.62 s  ClockTime = 1 s

Time = 9.6e-06

Courant Number mean: 0.00785674 max: 0.18168
diagonal:  Solving for rho, Initial residual = 0, Final residual = 0, No Iterations 0
PIMPLE: iteration 1
DILUPBiCG:  Solving for Ux, Initial residual = 6.54674e-05, Final residual = 3.92465e-10, No Iterations 3
DILUPBiCG:  Solving for Uy, Initial residual = 0.000642303, Final residual = 3.2395e-10, No Iterations 4
DILUPBiCG:  Solving for Uz, Initial residual = 0.000294128, Final residual = 7.37419e-10, No Iterations 4
DILUPBiCG:  Solving for e, Initial residual = 0.000114212, Final residual = 4.86571e-10, No Iterations 4
DILUPBiCG:  Solving for p, Initial residual = 7.99158e-05, Final residual = 6.17078e-14, No Iterations 4
DILUPBiCG:  Solving for p, Initial residual = 1.00802e-08, Final residual = 2.39659e-13, No Iterations 2
DILUPBiCG:  Solving for p, Initial residual = 4.3923e-12, Final residual = 6.64411e-15, No Iterations 1
diagonal:  Solving for rho, Initial residual = 0, Final residual = 0, No Iterations 0
time step continuity errors : sum local = 5.07351e-16, global = 1.84693e-16, cumulative = -1.36373e-15
DILUPBiCG:  Solving for p, Initial residual = 1.13599e-07, Final residual = 8.92348e-13, No Iterations 2
DILUPBiCG:  Solving for p, Initial residual = 4.10112e-11, Final residual = 4.26447e-14, No Iterations 1
DILUPBiCG:  Solving for p, Initial residual = 6.85324e-14, Final residual = 6.85324e-14, No Iterations 0
diagonal:  Solving for rho, Initial residual = 0, Final residual = 0, No Iterations 0
time step continuity errors : sum local = 3.70569e-15, global = -4.04278e-17, cumulative = -1.40416e-15
DILUPBiCG:  Solving for p, Initial residual = 5.05656e-10, Final residual = 9.34934e-13, No Iterations 1
DILUPBiCG:  Solving for p, Initial residual = 1.00394e-12, Final residual = 4.84143e-15, No Iterations 1
DILUPBiCG:  Solving for p, Initial residual = 5.75447e-15, Final residual = 5.75447e-15, No Iterations 0
diagonal:  Solving for rho, Initial residual = 0, Final residual = 0, No Iterations 0
time step continuity errors : sum local = 4.37554e-16, global = 2.13305e-16, cumulative = -1.19086e-15
DILUPBiCG:  Solving for epsilon, Initial residual = 1.30214e-05, Final residual = 6.28068e-11, No Iterations 3
DILUPBiCG:  Solving for k, Initial residual = 0.000506533, Final residual = 2.73385e-11, No Iterations 5
ExecutionTime = 0.64 s  ClockTime = 1 s

Time = 9.9e-06

Courant Number mean: 0.00785666 max: 0.18168
diagonal:  Solving for rho, Initial residual = 0, Final residual = 0, No Iterations 0
PIMPLE: iteration 1
DILUPBiCG:  Solving for Ux, Initial residual = 6.40498e-05, Final residual = 4.09126e-10, No Iterations 3
DILUPBiCG:  Solving for Uy, Initial residual = 0.000635264, Final residual = 3.25505e-10, No Iterations 4
DILUPBiCG:  Solving for Uz, Initial residual = 0.000288867, Final residual = 6.69381e-10, No Iterations 4
DILUPBiCG:  Solving for e, Initial residual = 0.000110634, Final residual = 4.81826e-10, No Iterations 4
DILUPBiCG:  Solving for p, Initial residual = 7.58772e-05, Final residual = 6.33914e-14, No Iterations 4
DILUPBiCG:  Solving for p, Initial residual = 9.61858e-09, Final residual = 1.92e-13, No Iterations 2
DILUPBiCG:  Solving for p, Initial residual = 4.20931e-12, Final residual = 6.39447e-15, No Iterations 1
diagonal:  Solving for rho, Initial residual = 0, Final residual = 0, No Iterations 0
time step continuity errors : sum local = 5.0151e-16, global = 1.76726e-16, cumulative = -1.01413e-15
DILUPBiCG:  Solving for p, Initial residual = 1.10327e-07, Final residual = 8.65162e-13, No Iterations 2
DILUPBiCG:  Solving for p, Initial residual = 4.02263e-11, Final residual = 4.22929e-14, No Iterations 1
DILUPBiCG:  Solving for p, Initial residual = 6.78042e-14, Final residual = 6.78042e-14, No Iterations 0
diagonal:  Solving for rho, Initial residual = 0, Final residual = 0, No Iterations 0
time step continuity errors : sum local = 3.8558e-15, global = -4.31372e-17, cumulative = -1.05727e-15
DILUPBiCG:  Solving for p, Initial residual = 4.97291e-10, Final residual = 8.60754e-13, No Iterations 1
DILUPBiCG:  Solving for p, Initial residual = 9.35597e-13, Final residual = 9.35597e-13, No Iterations 0
DILUPBiCG:  Solving for p, Initial residual = 9.35597e-13, Final residual = 9.35597e-13, No Iterations 0
diagonal:  Solving for rho, Initial residual = 0, Final residual = 0, No Iterations 0
time step continuity errors : sum local = 5.15816e-14, global = 3.21705e-14, cumulative = 3.11132e-14
DILUPBiCG:  Solving for epsilon, Initial residual = 1.35747e-05, Final residual = 8.50983e-11, No Iterations 3
DILUPBiCG:  Solving for k, Initial residual = 0.000459621, Final residual = 2.52882e-11, No Iterations 5
ExecutionTime = 0.66 s  ClockTime = 1 s

Time = 1.02e-05

Courant Number mean: 0.00785658 max: 0.18168
diagonal:  Solving for rho, Initial residual = 0, Final residual = 0, No Iterations 0
PIMPLE: iteration 1
[...]
time step continuity errors : sum local = 2.48491e-14, global = 2.68299e-15, cumulative = -1.85185e-11
DILUPBiCG:  Solving for epsilon, Initial residual = 5.63308e-06, Final residual = 1.61179e-11, No Iterations 3
DILUPBiCG:  Solving for k, Initial residual = 7.33609e-06, Final residual = 7.22108e-12, No Iterations 4
ExecutionTime = 12.27 s  ClockTime = 13 s

Time = 0.0002082

Courant Number mean: 0.00782127 max: 0.176374
diagonal:  Solving for rho, Initial residual = 0, Final residual = 0, No Iterations 0
PIMPLE: iteration 1
DILUPBiCG:  Solving for Ux, Initial residual = 3.51526e-06, Final residual = 9.45411e-10, No Iterations 2
DILUPBiCG:  Solving for Uy, Initial residual = 3.63883e-05, Final residual = 6.03141e-11, No Iterations 4
DILUPBiCG:  Solving for Uz, Initial residual = 4.40018e-05, Final residual = 4.46013e-11, No Iterations 4
DILUPBiCG:  Solving for e, Initial residual = 4.25339e-06, Final residual = 2.93703e-10, No Iterations 3
DILUPBiCG:  Solving for p, Initial residual = 3.75163e-06, Final residual = 9.00525e-13, No Iterations 3
DILUPBiCG:  Solving for p, Initial residual = 9.65115e-11, Final residual = 6.23321e-13, No Iterations 1
DILUPBiCG:  Solving for p, Initial residual = 6.27624e-13, Final residual = 6.27624e-13, No Iterations 0
diagonal:  Solving for rho, Initial residual = 0, Final residual = 0, No Iterations 0
time step continuity errors : sum local = 8.25666e-13, global = -7.80951e-14, cumulative = -1.85966e-11
DILUPBiCG:  Solving for p, Initial residual = 2.1292e-10, Final residual = 7.96276e-13, No Iterations 1
DILUPBiCG:  Solving for p, Initial residual = 8.59434e-13, Final residual = 8.59434e-13, No Iterations 0
DILUPBiCG:  Solving for p, Initial residual = 8.59434e-13, Final residual = 8.59434e-13, No Iterations 0
diagonal:  Solving for rho, Initial residual = 0, Final residual = 0, No Iterations 0
time step continuity errors : sum local = 1.13064e-12, global = -2.12772e-13, cumulative = -1.88094e-11
DILUPBiCG:  Solving for p, Initial residual = 3.21197e-12, Final residual = 1.82086e-14, No Iterations 1
DILUPBiCG:  Solving for p, Initial residual = 1.87141e-14, Final residual = 1.87141e-14, No Iterations 0
DILUPBiCG:  Solving for p, Initial residual = 1.87141e-14, Final residual = 1.87141e-14, No Iterations 0
diagonal:  Solving for rho, Initial residual = 0, Final residual = 0, No Iterations 0
time step continuity errors : sum local = 2.47502e-14, global = 2.67969e-15, cumulative = -1.88067e-11
DILUPBiCG:  Solving for epsilon, Initial residual = 5.77286e-06, Final residual = 1.60363e-11, No Iterations 3
DILUPBiCG:  Solving for k, Initial residual = 7.33426e-06, Final residual = 7.25588e-12, No Iterations 4
ExecutionTime = 12.29 s  ClockTime = 13 s

Time = 0.0002085

Courant Number mean: 0.00782121 max: 0.176344
diagonal:  Solving for rho, Initial residual = 0, Final residual = 0, No Iterations 0
PIMPLE: iteration 1
DILUPBiCG:  Solving for Ux, Initial residual = 3.51744e-06, Final residual = 9.46321e-10, No Iterations 2
DILUPBiCG:  Solving for Uy, Initial residual = 3.63342e-05, Final residual = 6.02444e-11, No Iterations 4
DILUPBiCG:  Solving for Uz, Initial residual = 4.57499e-05, Final residual = 3.85335e-10, No Iterations 3
DILUPBiCG:  Solving for e, Initial residual = 4.25127e-06, Final residual = 2.94409e-10, No Iterations 3
DILUPBiCG:  Solving for p, Initial residual = 3.74972e-06, Final residual = 8.98911e-13, No Iterations 3
DILUPBiCG:  Solving for p, Initial residual = 9.54654e-11, Final residual = 6.23042e-13, No Iterations 1
DILUPBiCG:  Solving for p, Initial residual = 6.28024e-13, Final residual = 6.28024e-13, No Iterations 0
diagonal:  Solving for rho, Initial residual = 0, Final residual = 0, No Iterations 0
time step continuity errors : sum local = 8.26709e-13, global = -7.73132e-14, cumulative = -1.8884e-11
DILUPBiCG:  Solving for p, Initial residual = 2.12234e-10, Final residual = 7.95318e-13, No Iterations 1
DILUPBiCG:  Solving for p, Initial residual = 8.58057e-13, Final residual = 8.58057e-13, No Iterations 0
DILUPBiCG:  Solving for p, Initial residual = 8.58057e-13, Final residual = 8.58057e-13, No Iterations 0
diagonal:  Solving for rho, Initial residual = 0, Final residual = 0, No Iterations 0
time step continuity errors : sum local = 1.12952e-12, global = -2.12753e-13, cumulative = -1.90967e-11
DILUPBiCG:  Solving for p, Initial residual = 3.20584e-12, Final residual = 1.81228e-14, No Iterations 1
DILUPBiCG:  Solving for p, Initial residual = 1.8626e-14, Final residual = 1.8626e-14, No Iterations 0
DILUPBiCG:  Solving for p, Initial residual = 1.8626e-14, Final residual = 1.8626e-14, No Iterations 0
diagonal:  Solving for rho, Initial residual = 0, Final residual = 0, No Iterations 0
time step continuity errors : sum local = 2.46326e-14, global = 2.68943e-15, cumulative = -1.90941e-11
DILUPBiCG:  Solving for epsilon, Initial residual = 6.02268e-06, Final residual = 1.52641e-11, No Iterations 3
DILUPBiCG:  Solving for k, Initial residual = 7.32389e-06, Final residual = 7.28673e-12, No Iterations 4
ExecutionTime = 12.3 s  ClockTime = 13 s

Time = 0.0002088

Courant Number mean: 0.00782116 max: 0.176313
diagonal:  Solving for rho, Initial residual = 0, Final residual = 0, No Iterations 0
PIMPLE: iteration 1
DILUPBiCG:  Solving for Ux, Initial residual = 3.52147e-06, Final residual = 9.46687e-10, No Iterations 2
DILUPBiCG:  Solving for Uy, Initial residual = 3.6299e-05, Final residual = 6.01397e-11, No Iterations 4
DILUPBiCG:  Solving for Uz, Initial residual = 4.41872e-05, Final residual = 7.76599e-11, No Iterations 4
DILUPBiCG:  Solving for e, Initial residual = 4.24899e-06, Final residual = 2.95123e-10, No Iterations 3
DILUPBiCG:  Solving for p, Initial residual = 3.74769e-06, Final residual = 8.97373e-13, No Iterations 3
DILUPBiCG:  Solving for p, Initial residual = 9.49998e-11, Final residual = 6.17579e-13, No Iterations 1
DILUPBiCG:  Solving for p, Initial residual = 6.22668e-13, Final residual = 6.22668e-13, No Iterations 0
diagonal:  Solving for rho, Initial residual = 0, Final residual = 0, No Iterations 0
time step continuity errors : sum local = 8.20169e-13, global = -7.68251e-14, cumulative = -1.91709e-11
DILUPBiCG:  Solving for p, Initial residual = 2.11549e-10, Final residual = 7.94365e-13, No Iterations 1
DILUPBiCG:  Solving for p, Initial residual = 8.56762e-13, Final residual = 8.56762e-13, No Iterations 0
DILUPBiCG:  Solving for p, Initial residual = 8.56762e-13, Final residual = 8.56762e-13, No Iterations 0
diagonal:  Solving for rho, Initial residual = 0, Final residual = 0, No Iterations 0
time step continuity errors : sum local = 1.12851e-12, global = -2.12679e-13, cumulative = -1.93836e-11
DILUPBiCG:  Solving for p, Initial residual = 3.19905e-12, Final residual = 1.80325e-14, No Iterations 1
DILUPBiCG:  Solving for p, Initial residual = 1.8532e-14, Final residual = 1.8532e-14, No Iterations 0
DILUPBiCG:  Solving for p, Initial residual = 1.8532e-14, Final residual = 1.8532e-14, No Iterations 0
diagonal:  Solving for rho, Initial residual = 0, Final residual = 0, No Iterations 0
time step continuity errors : sum local = 2.45227e-14, global = 2.68567e-15, cumulative = -1.93809e-11
DILUPBiCG:  Solving for epsilon, Initial residual = 5.61502e-06, Final residual = 1.59789e-11, No Iterations 3
DILUPBiCG:  Solving for k, Initial residual = 7.30725e-06, Final residual = 7.31211e-12, No Iterations 4
ExecutionTime = 12.32 s  ClockTime = 13 s

Time = 0.0002091

Courant Number mean: 0.00782111 max: 0.176282
diagonal:  Solving for rho, Initial residual = 0, Final residual = 0, No Iterations 0
PIMPLE: iteration 1
DILUPBiCG:  Solving for Ux, Initial residual = 3.50628e-06, Final residual = 9.44562e-10, No Iterations 2
DILUPBiCG:  Solving for Uy, Initial residual = 3.61822e-05, Final residual = 6.001e-11, No Iterations 4
DILUPBiCG:  Solving for Uz, Initial residual = 4.40931e-05, Final residual = 5.9428e-11, No Iterations 4
DILUPBiCG:  Solving for e, Initial residual = 4.24761e-06, Final residual = 2.95807e-10, No Iterations 3
DILUPBiCG:  Solving for p, Initial residual = 3.74578e-06, Final residual = 8.95887e-13, No Iterations 3
DILUPBiCG:  Solving for p, Initial residual = 9.38912e-11, Final residual = 8.18852e-13, No Iterations 1
DILUPBiCG:  Solving for p, Initial residual = 8.31905e-13, Final residual = 8.31905e-13, No Iterations 0
diagonal:  Solving for rho, Initial residual = 0, Final residual = 0, No Iterations 0
time step continuity errors : sum local = 1.09642e-12, global = -1.78685e-14, cumulative = -1.93987e-11
DILUPBiCG:  Solving for p, Initial residual = 2.11009e-10, Final residual = 7.94444e-13, No Iterations 1
DILUPBiCG:  Solving for p, Initial residual = 8.53639e-13, Final residual = 8.53639e-13, No Iterations 0
DILUPBiCG:  Solving for p, Initial residual = 8.53639e-13, Final residual = 8.53639e-13, No Iterations 0
diagonal:  Solving for rho, Initial residual = 0, Final residual = 0, No Iterations 0
time step continuity errors : sum local = 1.12511e-12, global = -2.12292e-13, cumulative = -1.9611e-11
DILUPBiCG:  Solving for p, Initial residual = 3.19032e-12, Final residual = 1.77629e-14, No Iterations 1
DILUPBiCG:  Solving for p, Initial residual = 1.81078e-14, Final residual = 1.81078e-14, No Iterations 0
DILUPBiCG:  Solving for p, Initial residual = 1.81078e-14, Final residual = 1.81078e-14, No Iterations 0
diagonal:  Solving for rho, Initial residual = 0, Final residual = 0, No Iterations 0
time step continuity errors : sum local = 2.39853e-14, global = 2.56924e-15, cumulative = -1.96085e-11
DILUPBiCG:  Solving for epsilon, Initial residual = 5.60755e-06, Final residual = 1.59646e-11, No Iterations 3
DILUPBiCG:  Solving for k, Initial residual = 7.30118e-06, Final residual = 7.34414e-12, No Iterations 4
ExecutionTime = 12.34 s  ClockTime = 13 s

Time = 0.0002094

Courant Number mean: 0.00782106 max: 0.17625
diagonal:  Solving for rho, Initial residual = 0, Final residual = 0, No Iterations 0
PIMPLE: iteration 1
DILUPBiCG:  Solving for Ux, Initial residual = 3.50317e-06, Final residual = 9.44264e-10, No Iterations 2
DILUPBiCG:  Solving for Uy, Initial residual = 3.61128e-05, Final residual = 5.99056e-11, No Iterations 4
DILUPBiCG:  Solving for Uz, Initial residual = 4.46488e-05, Final residual = 4.46101e-11, No Iterations 4
DILUPBiCG:  Solving for e, Initial residual = 4.24567e-06, Final residual = 2.96514e-10, No Iterations 3
DILUPBiCG:  Solving for p, Initial residual = 3.74369e-06, Final residual = 8.94516e-13, No Iterations 3
DILUPBiCG:  Solving for p, Initial residual = 9.42584e-11, Final residual = 2.85479e-15, No Iterations 2
DILUPBiCG:  Solving for p, Initial residual = 8.59049e-14, Final residual = 8.59049e-14, No Iterations 0
diagonal:  Solving for rho, Initial residual = 0, Final residual = 0, No Iterations 0
time step continuity errors : sum local = 1.13379e-13, global = -5.42704e-17, cumulative = -1.96085e-11
DILUPBiCG:  Solving for p, Initial residual = 2.10242e-10, Final residual = 7.92407e-13, No Iterations 1
DILUPBiCG:  Solving for p, Initial residual = 8.50689e-13, Final residual = 8.50689e-13, No Iterations 0
DILUPBiCG:  Solving for p, Initial residual = 8.50689e-13, Final residual = 8.50689e-13, No Iterations 0
diagonal:  Solving for rho, Initial residual = 0, Final residual = 0, No Iterations 0
time step continuity errors : sum local = 1.12191e-12, global = -2.1216e-13, cumulative = -1.98207e-11
DILUPBiCG:  Solving for p, Initial residual = 3.18307e-12, Final residual = 1.7681e-14, No Iterations 1
DILUPBiCG:  Solving for p, Initial residual = 1.80275e-14, Final residual = 1.80275e-14, No Iterations 0
DILUPBiCG:  Solving for p, Initial residual = 1.80275e-14, Final residual = 1.80275e-14, No Iterations 0
diagonal:  Solving for rho, Initial residual = 0, Final residual = 0, No Iterations 0
time step continuity errors : sum local = 2.38932e-14, global = 2.54164e-15, cumulative = -1.98181e-11
DILUPBiCG:  Solving for epsilon, Initial residual = 5.57845e-06, Final residual = 1.57967e-11, No Iterations 3
DILUPBiCG:  Solving for k, Initial residual = 7.29287e-06, Final residual = 7.37728e-12, No Iterations 4
ExecutionTime = 12.35 s  ClockTime = 13 s

Time = 0.0002097

Courant Number mean: 0.00782101 max: 0.176219
diagonal:  Solving for rho, Initial residual = 0, Final residual = 0, No Iterations 0
PIMPLE: iteration 1
DILUPBiCG:  Solving for Ux, Initial residual = 3.50047e-06, Final residual = 9.44097e-10, No Iterations 2
DILUPBiCG:  Solving for Uy, Initial residual = 3.60453e-05, Final residual = 5.98031e-11, No Iterations 4
DILUPBiCG:  Solving for Uz, Initial residual = 4.52623e-05, Final residual = 6.18225e-11, No Iterations 4
DILUPBiCG:  Solving for e, Initial residual = 4.2437e-06, Final residual = 2.97259e-10, No Iterations 3
DILUPBiCG:  Solving for p, Initial residual = 3.7415e-06, Final residual = 8.93193e-13, No Iterations 3
DILUPBiCG:  Solving for p, Initial residual = 9.44833e-11, Final residual = 2.81364e-15, No Iterations 2
DILUPBiCG:  Solving for p, Initial residual = 8.85512e-14, Final residual = 8.85512e-14, No Iterations 0
diagonal:  Solving for rho, Initial residual = 0, Final residual = 0, No Iterations 0
time step continuity errors : sum local = 1.16941e-13, global = -3.43037e-17, cumulative = -1.98182e-11
DILUPBiCG:  Solving for p, Initial residual = 2.09558e-10, Final residual = 7.91284e-13, No Iterations 1
DILUPBiCG:  Solving for p, Initial residual = 8.49356e-13, Final residual = 8.49356e-13, No Iterations 0
DILUPBiCG:  Solving for p, Initial residual = 8.49356e-13, Final residual = 8.49356e-13, No Iterations 0
diagonal:  Solving for rho, Initial residual = 0, Final residual = 0, No Iterations 0
time step continuity errors : sum local = 1.12085e-12, global = -2.11905e-13, cumulative = -2.00301e-11
DILUPBiCG:  Solving for p, Initial residual = 3.17563e-12, Final residual = 1.75974e-14, No Iterations 1
DILUPBiCG:  Solving for p, Initial residual = 1.79453e-14, Final residual = 1.79453e-14, No Iterations 0
DILUPBiCG:  Solving for p, Initial residual = 1.79453e-14, Final residual = 1.79453e-14, No Iterations 0
diagonal:  Solving for rho, Initial residual = 0, Final residual = 0, No Iterations 0
time step continuity errors : sum local = 2.38122e-14, global = 2.52884e-15, cumulative = -2.00275e-11
DILUPBiCG:  Solving for epsilon, Initial residual = 5.71372e-06, Final residual = 1.58933e-11, No Iterations 3
DILUPBiCG:  Solving for k, Initial residual = 7.28727e-06, Final residual = 7.41258e-12, No Iterations 4
ExecutionTime = 12.37 s  ClockTime = 13 s

Time = 0.00021

Courant Number mean: 0.00782096 max: 0.176188
diagonal:  Solving for rho, Initial residual = 0, Final residual = 0, No Iterations 0
PIMPLE: iteration 1
DILUPBiCG:  Solving for Ux, Initial residual = 3.5023e-06, Final residual = 9.4463e-10, No Iterations 2
DILUPBiCG:  Solving for Uy, Initial residual = 3.59912e-05, Final residual = 5.97258e-11, No Iterations 4
DILUPBiCG:  Solving for Uz, Initial residual = 4.53587e-05, Final residual = 8.12618e-10, No Iterations 3
DILUPBiCG:  Solving for e, Initial residual = 4.24166e-06, Final residual = 2.98023e-10, No Iterations 3
DILUPBiCG:  Solving for p, Initial residual = 3.73922e-06, Final residual = 8.91902e-13, No Iterations 3
DILUPBiCG:  Solving for p, Initial residual = 9.46153e-11, Final residual = 2.85534e-15, No Iterations 2
DILUPBiCG:  Solving for p, Initial residual = 8.83573e-14, Final residual = 8.83573e-14, No Iterations 0
diagonal:  Solving for rho, Initial residual = 0, Final residual = 0, No Iterations 0
time step continuity errors : sum local = 1.16748e-13, global = -2.40779e-17, cumulative = -2.00276e-11
DILUPBiCG:  Solving for p, Initial residual = 2.08884e-10, Final residual = 7.9017e-13, No Iterations 1
DILUPBiCG:  Solving for p, Initial residual = 8.47951e-13, Final residual = 8.47951e-13, No Iterations 0
DILUPBiCG:  Solving for p, Initial residual = 8.47951e-13, Final residual = 8.47951e-13, No Iterations 0
diagonal:  Solving for rho, Initial residual = 0, Final residual = 0, No Iterations 0
time step continuity errors : sum local = 1.11967e-12, global = -2.11603e-13, cumulative = -2.02392e-11
DILUPBiCG:  Solving for p, Initial residual = 3.16906e-12, Final residual = 1.75188e-14, No Iterations 1
DILUPBiCG:  Solving for p, Initial residual = 1.78451e-14, Final residual = 1.78451e-14, No Iterations 0
DILUPBiCG:  Solving for p, Initial residual = 1.78451e-14, Final residual = 1.78451e-14, No Iterations 0
diagonal:  Solving for rho, Initial residual = 0, Final residual = 0, No Iterations 0
time step continuity errors : sum local = 2.36854e-14, global = 2.50645e-15, cumulative = -2.02367e-11
DILUPBiCG:  Solving for epsilon, Initial residual = 5.53525e-06, Final residual = 1.57758e-11, No Iterations 3
DILUPBiCG:  Solving for k, Initial residual = 7.27325e-06, Final residual = 7.44575e-12, No Iterations 4
ExecutionTime = 12.39 s  ClockTime = 13 s

Time = 0.0002103

Courant Number mean: 0.00782091 max: 0.176156
diagonal:  Solving for rho, Initial residual = 0, Final residual = 0, No Iterations 0
PIMPLE: iteration 1
DILUPBiCG:  Solving for Ux, Initial residual = 3.49448e-06, Final residual = 9.43384e-10, No Iterations 2
DILUPBiCG:  Solving for Uy, Initial residual = 3.591e-05, Final residual = 5.95914e-11, No Iterations 4
DILUPBiCG:  Solving for Uz, Initial residual = 4.42398e-05, Final residual = 4.81252e-10, No Iterations 3
DILUPBiCG:  Solving for e, Initial residual = 4.23992e-06, Final residual = 2.9878e-10, No Iterations 3
DILUPBiCG:  Solving for p, Initial residual = 3.73691e-06, Final residual = 8.90632e-13, No Iterations 3
DILUPBiCG:  Solving for p, Initial residual = 9.36084e-11, Final residual = 2.84467e-15, No Iterations 2
DILUPBiCG:  Solving for p, Initial residual = 9.04024e-14, Final residual = 9.04024e-14, No Iterations 0
diagonal:  Solving for rho, Initial residual = 0, Final residual = 0, No Iterations 0
time step continuity errors : sum local = 1.19524e-13, global = -1.83041e-17, cumulative = -2.02367e-11
DILUPBiCG:  Solving for p, Initial residual = 2.08202e-10, Final residual = 7.89018e-13, No Iterations 1
DILUPBiCG:  Solving for p, Initial residual = 8.45223e-13, Final residual = 8.45223e-13, No Iterations 0
DILUPBiCG:  Solving for p, Initial residual = 8.45223e-13, Final residual = 8.45223e-13, No Iterations 0
diagonal:  Solving for rho, Initial residual = 0, Final residual = 0, No Iterations 0
time step continuity errors : sum local = 1.11674e-12, global = -2.11226e-13, cumulative = -2.04479e-11
DILUPBiCG:  Solving for p, Initial residual = 3.16211e-12, Final residual = 1.74468e-14, No Iterations 1
DILUPBiCG:  Solving for p, Initial residual = 1.7763e-14, Final residual = 1.7763e-14, No Iterations 0
DILUPBiCG:  Solving for p, Initial residual = 1.7763e-14, Final residual = 1.7763e-14, No Iterations 0
diagonal:  Solving for rho, Initial residual = 0, Final residual = 0, No Iterations 0
time step continuity errors : sum local = 2.35929e-14, global = 2.49271e-15, cumulative = -2.04454e-11
DILUPBiCG:  Solving for epsilon, Initial residual = 5.52368e-06, Final residual = 1.59571e-11, No Iterations 3
DILUPBiCG:  Solving for k, Initial residual = 7.26458e-06, Final residual = 7.48113e-12, No Iterations 4
ExecutionTime = 12.4 s  ClockTime = 13 s

Time = 0.0002106

Courant Number mean: 0.00782086 max: 0.176124
diagonal:  Solving for rho, Initial residual = 0, Final residual = 0, No Iterations 0
PIMPLE: iteration 1
DILUPBiCG:  Solving for Ux, Initial residual = 3.49096e-06, Final residual = 9.42829e-10, No Iterations 2
DILUPBiCG:  Solving for Uy, Initial residual = 3.58405e-05, Final residual = 5.94814e-11, No Iterations 4
DILUPBiCG:  Solving for Uz, Initial residual = 4.62615e-05, Final residual = 2.13177e-11, No Iterations 4
DILUPBiCG:  Solving for e, Initial residual = 4.23806e-06, Final residual = 2.99548e-10, No Iterations 3
DILUPBiCG:  Solving for p, Initial residual = 3.7345e-06, Final residual = 8.89374e-13, No Iterations 3
